Circuit: * D:\Huguito-HDD-02\UTN\B5 - 5° Nivel\EP - Electrónica de Potencia\2024\Proyecto\SegundoCuatri\Entrega\LTSpice_2\puenteHconSPWM_IRF.asc

WARNING: Node VB is floating.

Direct Newton iteration failed to find .op point.  (Use ".option noopiter" to skip.)
Starting Gmin stepping
Gmin = 10
Gmin = 1.07374
Gmin = 0.115292
Gmin = 0.0123794
Gmin = 0.00132923
Gmin = 0.000142725
Gmin = 1.5325e-05
Gmin = 1.6455e-06
Gmin = 1.76685e-07
Gmin = 1.89714e-08
Gmin = 2.03704e-09
Gmin = 2.18725e-10
Gmin = 2.34854e-11
vernier = 0.5
vernier = 0.25
Gmin = 6.81696e-12
vernier = 0.125
vernier = 0.166667
vernier = 0.0833333
Gmin = 5.61102e-12
vernier = 0.0416667
vernier = 0.0208333
vernier = 0.0104167
vernier = 0.00520833
vernier = 0.00260417
Gmin = 5.58191e-12
vernier = 0.00130208
vernier = 0.000651042
vernier = 0.000488281
Gmin = 5.57284e-12
Gmin = 0
Gmin stepping failed

Starting source stepping with srcstepmethod=0
Source Step = 3.0303%
Source Step = 11.6004%
Source Step = 11.6507%
Source Step = 11.6803%
Source Step = 11.7099%
Source Step = 11.7395%
Source Step = 11.7691%
Starting source stepping with srcstepmethod=1
Source Step = 3.0303%
Source Step = 18.1937%
Source stepping failed

Pseudo Transient succeeded in finding the operating point at 328.849 ms.
.step lfiltro=0.0001
Heightened Def Con from 2.48045e-05 to 2.48047e-05
Heightened Def Con from 2.48052e-05 to 2.48053e-05
Heightened Def Con from 0.000125989 to 0.000125989
Heightened Def Con from 0.00022678 to 0.00022678
Heightened Def Con from 0.000277174 to 0.000277174
Heightened Def Con from 0.000327568 to 0.000327568
Heightened Def Con from 0.000377962 to 0.000377962
Heightened Def Con from 0.000421698 to 0.000421698
Heightened Def Con from 0.000428354 to 0.000428354
Heightened Def Con from 0.000478746 to 0.000478746
Heightened Def Con from 0.000520927 +to 0.000520927
Heightened Def Con from 0.000529137 to 0.000529137
Heightened Def Con from 0.000579526 to 0.000579527
Heightened Def Con from 0.00062016 to 0.00062016
Heightened Def Con from 0.000629915 to 0.000629915
Heightened Def Con from 0.000680302 to 0.000680303
Heightened Def Con from 0.000730689 to 0.000730689
Heightened Def Con from 0.000781073 to 0.000781073
Heightened Def Con from 0.000831456 to 0.000831456
Heightened Def Con from 0.000881838 to 0.000881838
Heightened Def Con from 0.000932217 to 0.000932218
Heightened Def Con from 0.00103297 to 0.00103297
Heightened Def Con from 0.00108335 to 0.00108335
Heightened Def Con from 0.00111641 to 0.00111641
Heightened Def Con from 0.00113372 to 0.00113372
Heightened Def Con from 0.00118409 to 0.00118409
Heightened Def Con from 0.00123445 to 0.00123445
Heightened Def Con from 0.00128482 to 0.00128482
Heightened Def Con from 0.00131496 to 0.00131496
Heightened Def Con from 0.00133518 to 0.00133518
Heightened Def Con from 0.00133518 to 0.00133518
Heightened Def Con from 0.00138554 to 0.00138554
Heightened Def Con from 0.00141425 to 0.00141425
Heightened Def Con from 0.00141425 to 0.00141425
Heightened Def Con from 0.0014359 to 0.0014359
Heightened Def Con from 0.00148625 to 0.00148625
Heightened Def Con from 0.00153661 to 0.00153661
Heightened Def Con from 0.00158695 to 0.00158695
Heightened Def Con from 0.0016373 to 0.0016373
Heightened Def Con from 0.00168764 to 0.00168764
Heightened Def Con from 0.00171219 to 0.00171219
Heightened Def Con from 0.00173798 to 0.00173798
Heightened Def Con from 0.00178832 to 0.00178832
Heightened Def Con from 0.00181153 to 0.00181153
Heightened Def Con from 0.00183865 to 0.00183865
Heightened Def Con from 0.00183865 to 0.00183865
Heightened Def Con from 0.00193931 to 0.00193931
Heightened Def Con from 0.00201024 to 0.00201024
Heightened Def Con from 0.00203995 to 0.00203995
Heightened Def Con from 0.00209026 to 0.00209026
Heightened Def Con from 0.00214057 to 0.00214057
Heightened Def Con from 0.00219088 to 0.00219088
Heightened Def Con from 0.00219088 to 0.00219088
Heightened Def Con from 0.00224118 to 0.00224118
Heightened Def Con from 0.00229148 to 0.00229148
Heightened Def Con from 0.00230842 to 0.00230842
Heightened Def Con from 0.00234176 to 0.00234177
Heightened Def Con from 0.00234178 to 0.00234178
Heightened Def Con from 0.00239207 to 0.00239207
Heightened Def Con from 0.00240784 to 0.00240784
Heightened Def Con from 0.00244235 to 0.00244235
Heightened Def Con from 0.00249264 to 0.00249264
Heightened Def Con from 0.00250728 to 0.00250728
Heightened Def Con from 0.00254291 to 0.00254291
Heightened Def Con from 0.00259319 to 0.00259319
Heightened Def Con from 0.00264346 to 0.00264346
Heightened Def Con from 0.00270621 to 0.00270622
Heightened Def Con from 0.00274398 to 0.00274398
Heightened Def Con from 0.00279423 to 0.00279423
Heightened Def Con from 0.00280571 to 0.00280571
Heightened Def Con from 0.00284448 to 0.00284448
Heightened Def Con from 0.00294497 to 0.00294497
Heightened Def Con from 0.00294497 to 0.00294497
Heightened Def Con from 0.00294497 to 0.00294497
Heightened Def Con from 0.0029952 to 0.0029952
Heightened Def Con from 0.00304543 to 0.00304543
Heightened Def Con from 0.00309565 to 0.00309566
Heightened Def Con from 0.00309566 to 0.00309566
Heightened Def Con from 0.00309566 to 0.00309566
Heightened Def Con from 0.0031043 to 0.0031043
Heightened Def Con from 0.00314588 to 0.00314588
Heightened Def Con from 0.00314588 to 0.00314588
Heightened Def Con from 0.00319609 to 0.00319609
Heightened Def Con from 0.00319609 to 0.00319609
Heightened Def Con from 0.0032463 to 0.0032463
Heightened Def Con from 0.00330347 to 0.00330347
Heightened Def Con from 0.0033969 to 0.0033969
Heightened Def Con from 0.00340308 to 0.00340308
Heightened Def Con from 0.00344708 to 0.00344708
Heightened Def Con from 0.00349727 to 0.00349727
Heightened Def Con from 0.00350272 to 0.00350272
Heightened Def Con from 0.00354744 to 0.00354744
Heightened Def Con from 0.00359761 to 0.00359761
Heightened Def Con from 0.00364778 to 0.00364778
Heightened Def Con from 0.00369794 to 0.00369794
Heightened Def Con from 0.00374809 to 0.00374809
Heightened Def Con from 0.00379824 to 0.00379824
Heightened Def Con from 0.00384838 to 0.00384838
Heightened Def Con from 0.00389852 to 0.00389852
Heightened Def Con from 0.00389852 to 0.00389852
Heightened Def Con from 0.00394865 to 0.00394865
Heightened Def Con from 0.00399877 to 0.00399877
Heightened Def Con from 0.00404889 to 0.00404889
Heightened Def Con from 0.00409901 to 0.00409901
Heightened Def Con from 0.00414911 to 0.00414911
Heightened Def Con from 0.00419921 to 0.00419921
Heightened Def Con from 0.00424931 to 0.00424931
Heightened Def Con from 0.0042994 to 0.0042994
Heightened Def Con from 0.00439956 to 0.00439956
Heightened Def Con from 0.00444962 to 0.00444963
Heightened Def Con from 0.00444963 to 0.00444963
Heightened Def Con from 0.00449968 to 0.00449968
Heightened Def Con from 0.00449969 to 0.00449969
Heightened Def Con from 0.00454975 to 0.00454975
Heightened Def Con from 0.0045998 to 0.0045998
Heightened Def Con from 0.00464977 to 0.00464977
Heightened Def Con from 0.00464985 to 0.00464985
Heightened Def Con from 0.00469989 to 0.00469989
Heightened Def Con from 0.00469989 to 0.00469989
Heightened Def Con from 0.00474992 to 0.00474992
Heightened Def Con from 0.00484997 to 0.00484997
Heightened Def Con from 0.00490001 ++++++++++++++++++++++++++++++++++++to 0.00490001
Heightened Def Con from 0.00490001 +++++++++++++++++++++++++++++++++++++to 0.00490001
Heightened Def Con from 0.00490001 to 0.00490002
Heightened Def Con from 0.00495 to 0.00495
Heightened Def Con from 0.005 +++++++++++++++++++++++++++++++++++++to 0.005
Heightened Def Con from 0.00505 to 0.00505
Heightened Def Con from 0.00509999 to 0.00509999
Heightened Def Con from 0.00510001 to 0.00510001
Heightened Def Con from 0.00510001 +++++++++++++++++++++++++++++++++++++to 0.00510001
Heightened Def Con from 0.00514997 to 0.00514997
Heightened Def Con from 0.00524992 to 0.00524992
Heightened Def Con from 0.00529989 to 0.00529989
Heightened Def Con from 0.00534985 to 0.00534985
Heightened Def Con from 0.0053998 to 0.0053998
Heightened Def Con from 0.00549969 to 0.00549969
Heightened Def Con from 0.00549969 to 0.00549969
Heightened Def Con from 0.00554963 to 0.00554963
Heightened Def Con from 0.00559956 to 0.00559956
Heightened Def Con from 0.00560044 to 0.00560045
Heightened Def Con from 0.00564948 to 0.00564948
Heightened Def Con from 0.0056994 to 0.0056994
Heightened Def Con from 0.00574931 to 0.00574931
Heightened Def Con from 0.00579922 to 0.00579922
Heightened Def Con from 0.00580079 to 0.00580079
Heightened Def Con from 0.00584912 to 0.00584912
Heightened Def Con from 0.00589901 to 0.00589901
Heightened Def Con from 0.0059489 to 0.0059489
Heightened Def Con from 0.00599878 to 0.00599878
Heightened Def Con from 0.00604866 to 0.00604866
Heightened Def Con from 0.00609853 to 0.00609853
Heightened Def Con from 0.00614839 to 0.00614839
Heightened Def Con from 0.00619825 to 0.00619825
Heightened Def Con from 0.0062481 to 0.0062481
Heightened Def Con from 0.00629795 to 0.00629795
Heightened Def Con from 0.00634779 to 0.00634779
Heightened Def Con from 0.00639763 to 0.00639763
Heightened Def Con from 0.00644746 to 0.00644746
Heightened Def Con from 0.00649728 to 0.00649728
Heightened Def Con from 0.00650273 to 0.00650273
Heightened Def Con from 0.0065471 to 0.0065471
Heightened Def Con from 0.00659692 to 0.00659692
Heightened Def Con from 0.00664673 to 0.00664673
Heightened Def Con from 0.00669653 to 0.00669653
Heightened Def Con from 0.0067035 to 0.0067035
Heightened Def Con from 0.00674633 to 0.00674633
Heightened Def Con from 0.00679612 to 0.00679612
Heightened Def Con from 0.00684591 to 0.00684591
Heightened Def Con from 0.0068957 to 0.0068957
Heightened Def Con from 0.0068957 to 0.0068957
Heightened Def Con from 0.00690434 to 0.00690434
Heightened Def Con from 0.00694547 to 0.00694547
Heightened Def Con from 0.00699525 to 0.00699525
Heightened Def Con from 0.00704502 to 0.00704502
Heightened Def Con from 0.00709478 to 0.00709478
Heightened Def Con from 0.00710527 to 0.00710527
Heightened Def Con from 0.00714454 to 0.00714454
Heightened Def Con from 0.00719429 to 0.00719429
Heightened Def Con from 0.00724404 to 0.00724404
Heightened Def Con from 0.00729378 to 0.00729378
Heightened Def Con from 0.00729378 to 0.00729379
Heightened Def Con from 0.00730628 to 0.00730628
Heightened Def Con from 0.00734352 to 0.00734353
Heightened Def Con from 0.00739326 to 0.00739326
Heightened Def Con from 0.00744299 to 0.00744299
Heightened Def Con from 0.00754244 to 0.00754244
Heightened Def Con from 0.00759216 to 0.00759216
Heightened Def Con from 0.00764187 to 0.00764187
Heightened Def Con from 0.00769158 to 0.00769158
Heightened Def Con from 0.00774129 to 0.00774129
Heightened Def Con from 0.00779099 to 0.00779099
Heightened Def Con from 0.00780912 to 0.00780912
Heightened Def Con from 0.00780912 to 0.00780912
Heightened Def Con from 0.00790974 to 0.00790974
Heightened Def Con from 0.00790974 to 0.00790974
Heightened Def Con from 0.00794007 to 0.00794007
Heightened Def Con from 0.00798976 to 0.00798976
Heightened Def Con from 0.00801037 +to 0.00801037
Heightened Def Con from 0.00801037 to 0.00801037
Heightened Def Con from 0.00803944 to 0.00803944
Heightened Def Con from 0.00808912 to 0.00808912
Heightened Def Con from 0.0081388 to 0.0081388
Heightened Def Con from 0.0081388 to 0.0081388
Heightened Def Con from 0.00818847 to 0.00818847
Heightened Def Con from 0.00818847 to 0.00818847
Heightened Def Con from 0.00818847 to 0.00818847
Heightened Def Con from 0.00823814 to 0.00823814
Heightened Def Con from 0.00828781 to 0.00828781
Heightened Def Con from 0.00833747 to 0.00833747
Heightened Def Con from 0.00838713 to 0.00838713
Heightened Def Con from 0.00838713 to 0.00838713
Heightened Def Con from 0.00841305 to 0.00841305
Heightened Def Con from 0.00843679 to 0.00843679
Heightened Def Con from 0.00843679 to 0.00843679
Heightened Def Con from 0.00843679 to 0.00843679
Heightened Def Con from 0.00851375 to 0.00851375
Heightened Def Con from 0.0085361 to 0.0085361
Heightened Def Con from 0.00858574 to 0.00858575
Heightened Def Con from 0.00863539 to 0.00863539
Heightened Def Con from 0.00868504 to 0.00868504
Heightened Def Con from 0.00871518 to 0.00871518
Heightened Def Con from 0.00873468 to 0.00873468
Heightened Def Con from 0.00878432 to 0.00878432
Heightened Def Con from 0.00881591 to 0.00881591
Heightened Def Con from 0.00883395 to 0.00883395
Heightened Def Con from 0.00888359 to 0.00888359
Heightened Def Con from 0.00893322 to 0.00893322
Heightened Def Con from 0.00898285 to 0.00898285
Heightened Def Con from 0.00903248 to 0.00903248
Heightened Def Con from 0.00908211 to 0.00908211
Heightened Def Con from 0.00911816 to 0.00911816
Heightened Def Con from 0.00913174 to 0.00913174
Heightened Def Con from 0.00918136 to 0.00918136
Heightened Def Con from 0.00921893 to 0.00921893
Heightened Def Con from 0.00923098 to 0.00923098
Heightened Def Con from 0.00933022 to 0.00933022
Heightened Def Con from 0.00937984 to 0.00937984
Heightened Def Con from 0.00942047 to 0.00942047
Heightened Def Con from 0.00942946 to 0.00942946
Heightened Def Con from 0.00942946 to 0.00942946
Heightened Def Con from 0.00947907 to 0.00947907
Heightened Def Con from 0.00952125 to 0.00952125
Heightened Def Con from 0.00952125 to 0.00952125
Heightened Def Con from 0.00952869 to 0.00952869
Heightened Def Con from 0.00962204 to 0.00962204
Heightened Def Con from 0.00962792 to 0.00962792
Heightened Def Con from 0.00967753 to 0.00967753
Heightened Def Con from 0.00972283 to 0.00972283
Heightened Def Con from 0.00972714 to 0.00972714
Heightened Def Con from 0.00977675 to 0.00977675
Heightened Def Con from 0.00992441 to 0.00992441
Heightened Def Con from 0.0100248 to 0.0100248
Heightened Def Con from 0.010124 to 0.010124
Heightened Def Con from 0.0102232 to 0.0102232
Heightened Def Con from 0.0102268 to 0.0102268
Heightened Def Con from 0.0103225 to 0.0103225
Heightened Def Con from 0.0104217 to 0.0104217
Heightened Def Con from 0.0105209 to 0.0105209
Heightened Def Con from 0.0106202 to 0.0106202
Heightened Def Con from 0.0106299 to 0.0106299
Heightened Def Con from 0.0106698 to 0.0106698
Heightened Def Con from 0.0107194 to 0.0107194
Heightened Def Con from 0.0107194 to 0.0107194
Heightened Def Con from 0.0108186 to 0.0108186
Heightened Def Con from 0.0108315 to 0.0108315
Heightened Def Con from 0.0109179 to 0.0109179
Heightened Def Con from 0.0109322 to 0.0109322
Heightened Def Con from 0.0110171 to 0.0110171
Heightened Def Con from 0.011033 to 0.011033
Heightened Def Con from 0.0111164 to 0.0111164
Heightened Def Con from 0.0111337 to 0.0111337
Heightened Def Con from 0.0112157 to 0.0112157
Heightened Def Con from 0.0112345 to 0.0112345
Heightened Def Con from 0.011315 to 0.011315
Heightened Def Con from 0.0114143 to 0.0114143
Heightened Def Con from 0.0114359 to 0.0114359
Heightened Def Con from 0.0115136 to 0.0115136
Heightened Def Con from 0.0115366 to 0.0115366
Heightened Def Con from 0.0115366 to 0.0115366
Heightened Def Con from 0.0116129 to 0.0116129
Heightened Def Con from 0.0116373 to 0.0116373
Heightened Def Con from 0.0117122 to 0.0117122
Heightened Def Con from 0.011738 to 0.011738
Heightened Def Con from 0.0118115 to 0.0118115
Heightened Def Con from 0.0118387 to 0.0118387
Heightened Def Con from 0.0119109 to 0.0119109
Heightened Def Con from 0.0119393 to 0.0119393
Heightened Def Con from 0.0120102 to 0.0120102
Heightened Def Con from 0.0120399 to 0.0120399
Heightened Def Con from 0.0121096 to 0.0121096
Heightened Def Con from 0.0121406 to 0.0121406
Heightened Def Con from 0.012209 to 0.012209
Heightened Def Con from 0.0122412 to 0.0122412
Heightened Def Con from 0.0123084 to 0.0123084
Heightened Def Con from 0.0124424 to 0.0124424
Heightened Def Con from 0.0125073 to 0.0125073
Heightened Def Con from 0.0125073 to 0.0125073
Heightened Def Con from 0.0125429 to 0.0125429
Heightened Def Con from 0.0126067 to 0.0126067
Heightened Def Con from 0.0126067 to 0.0126067
Heightened Def Con from 0.0127062 to 0.0127062
Heightened Def Con from 0.012744 to 0.012744
Heightened Def Con from 0.0128057 to 0.0128057
Heightened Def Con from 0.0129052 to 0.0129052
Heightened Def Con from 0.012945 to 0.012945
Heightened Def Con from 0.0130048 to 0.0130048
Heightened Def Con from 0.0131043 to 0.0131043
Heightened Def Con from 0.0132039 to 0.0132039
Heightened Def Con from 0.0132463 to 0.0132463
Heightened Def Con from 0.0133035 to 0.0133035
Heightened Def Con from 0.0134031 to 0.0134031
Heightened Def Con from 0.0135027 to 0.0135027
Heightened Def Con from 0.0135474 to 0.0135474
Heightened Def Con from 0.0136478 to 0.0136478
Heightened Def Con from 0.0137481 to 0.0137481
Heightened Def Con from 0.0138018 to 0.0138018
Heightened Def Con from 0.0139486 to 0.0139486
Heightened Def Con from 0.0140012 to 0.0140012
Heightened Def Con from 0.014099 to 0.014099
Heightened Def Con from 0.014101 to 0.014101
Heightened Def Con from 0.0142008 to 0.0142008
Heightened Def Con from 0.0142493 to 0.0142493
Heightened Def Con from 0.0143495 to 0.0143495
Heightened Def Con from 0.0143495 to 0.0143495
Heightened Def Con from 0.0145003 to 0.0145003
Heightened Def Con from 0.0145502 to 0.0145503
Heightened Def Con from 0.0146002 to 0.0146002
Heightened Def Con from 0.0146498 to 0.0146498
Heightened Def Con from 0.0147001 to 0.0147001
Heightened Def Con from 0.0148 +++++++++++++++++++++++++++to 0.0148001
Heightened Def Con from 0.01495 to 0.01495
Heightened Def Con from 0.01495 to 0.01495
Heightened Def Con from 0.01505 to 0.01505
Heightened Def Con from 0.01505 to 0.01505
Heightened Def Con from 0.01505 to 0.01505
Heightened Def Con from 0.0151 to 0.0151
Heightened Def Con from 0.01515 to 0.01515
Heightened Def Con from 0.0152499 to 0.0152499
Heightened Def Con from 0.0153498 to 0.0153498
Heightened Def Con from 0.0154002 to 0.0154002
Heightened Def Con from 0.0155003 to 0.0155003
Heightened Def Con from 0.0155496 to 0.0155496
Heightened Def Con from 0.0156004 to 0.0156004
Heightened Def Con from 0.0156491 to 0.0156491
Heightened Def Con from 0.0156495 to 0.0156495
Heightened Def Con from 0.0158008 to 0.0158008
Heightened Def Con from 0.0158491 to 0.0158491
Heightened Def Con from 0.015901 to 0.015901
Heightened Def Con from 0.0159489 to 0.0159489
Heightened Def Con from 0.0161015 to 0.0161015
Heightened Def Con from 0.0162018 to 0.0162018
Heightened Def Con from 0.0163478 to 0.0163478
Heightened Def Con from 0.0164024 to 0.0164024
Heightened Def Con from 0.0165027 to 0.0165027
Heightened Def Con from 0.0165471 to 0.0165471
Heightened Def Con from 0.0166031 to 0.0166031
Heightened Def Con from 0.0166467 to 0.0166467
Heightened Def Con from 0.0167035 to 0.0167035
Heightened Def Con from 0.0167463 to 0.0167463
Heightened Def Con from 0.0168039 to 0.0168039
Heightened Def Con from 0.0168459 to 0.0168459
Heightened Def Con from 0.0169043 to 0.0169043
Heightened Def Con from 0.0170048 to 0.0170048
Heightened Def Con from 0.0171445 to 0.0171445
Heightened Def Con from 0.0172058 to 0.0172058
Heightened Def Con from 0.0173063 to 0.0173063
Heightened Def Con from 0.0173435 to 0.0173435
Heightened Def Con from 0.0174068 to 0.0174068
Heightened Def Con from 0.017443 to 0.017443
Heightened Def Con from 0.0175074 to 0.0175074
Heightened Def Con from 0.0176079 to 0.0176079
Heightened Def Con from 0.0176079 to 0.0176079
Heightened Def Con from 0.0177085 to 0.0177085
Heightened Def Con from 0.0177085 to 0.0177085
Heightened Def Con from 0.0178091 to 0.0178091
Heightened Def Con from 0.0179097 to 0.0179097
Heightened Def Con from 0.0179401 to 0.0179401
Heightened Def Con from 0.0180104 to 0.0180104
Heightened Def Con from 0.0180394 to 0.0180394
Heightened Def Con from 0.018111 to 0.018111
Heightened Def Con from 0.0181388 to 0.0181388
Heightened Def Con from 0.0181388 to 0.0181388
Heightened Def Con from 0.0182117 to 0.0182117
Heightened Def Con from 0.0182117 to 0.0182117
Heightened Def Con from 0.0183124 to 0.0183124
Heightened Def Con from 0.0183375 to 0.0183375
Heightened Def Con from 0.018413 to 0.018413
Heightened Def Con from 0.0184368 to 0.0184368
Heightened Def Con from 0.0185137 to 0.0185137
Heightened Def Con from 0.0185361 to 0.0185361
Heightened Def Con from 0.0186145 to 0.0186145
Heightened Def Con from 0.0187152 to 0.0187152
Heightened Def Con from 0.0187347 to 0.0187347
Heightened Def Con from 0.0187655 to 0.0187655
Heightened Def Con from 0.0188159 to 0.0188159
Heightened Def Con from 0.0188159 to 0.0188159
Heightened Def Con from 0.0189167 to 0.0189167
Heightened Def Con from 0.0189332 to 0.0189332
Heightened Def Con from 0.0190174 to 0.0190174
Heightened Def Con from 0.0190325 to 0.0190325
Heightened Def Con from 0.0191182 to 0.0191182
Heightened Def Con from 0.0191317 to 0.0191317
Heightened Def Con from 0.0192189 to 0.0192189
Heightened Def Con from 0.019231 to 0.019231
Heightened Def Con from 0.0193197 to 0.0193197
Heightened Def Con from 0.0193302 to 0.0193302
Heightened Def Con from 0.0193302 to 0.0193302
Heightened Def Con from 0.0193701 to 0.0193701
Heightened Def Con from 0.0194205 to 0.0194205
Heightened Def Con from 0.0195213 to 0.0195213
Heightened Def Con from 0.0195287 to 0.0195287
Heightened Def Con from 0.019622 to 0.019622
Heightened Def Con from 0.019622 to 0.019622
Heightened Def Con from 0.0196279 to 0.0196279
Heightened Def Con from 0.0197228 to 0.0197228
Heightened Def Con from 0.0197228 to 0.0197228
Heightened Def Con from 0.0198236 to 0.0198236
Heightened Def Con from 0.0199244 to 0.0199244
Heightened Def Con from 0.0199244 to 0.0199244
Heightened Def Con from 0.0200252 to 0.0200252
Heightened Def Con from 0.0200756 to 0.0200756
Heightened Def Con from 0.020126 to 0.020126
Heightened Def Con from 0.0201764 to 0.0201764
Heightened Def Con from 0.0202268 to 0.0202268
Heightened Def Con from 0.0202772 to 0.0202772
Heightened Def Con from 0.0203276 to 0.0203276
Heightened Def Con from 0.0204217 to 0.0204217
Heightened Def Con from 0.0204284 to 0.0204284
Heightened Def Con from 0.0204787 to 0.0204787
Heightened Def Con from 0.0205209 to 0.0205209
Heightened Def Con from 0.0205291 to 0.0205291
Heightened Def Con from 0.0205291 to 0.0205291
Heightened Def Con from 0.0205795 to 0.0205795
Heightened Def Con from 0.0206299 to 0.0206299
Heightened Def Con from 0.0206803 to 0.0206803
Heightened Def Con from 0.0207307 to 0.0207307
Heightened Def Con from 0.0207307 to 0.0207307
Heightened Def Con from 0.0207811 to 0.0207811
Heightened Def Con from 0.0207811 to 0.0207811
Heightened Def Con from 0.0208315 to 0.0208315
Heightened Def Con from 0.0208818 to 0.0208818
Heightened Def Con from 0.0209322 to 0.0209322
Heightened Def Con from 0.0209826 to 0.0209826
Heightened Def Con from 0.0210171 to 0.0210171
Heightened Def Con from 0.021033 to 0.021033
Heightened Def Con from 0.0210833 to 0.0210833
Heightened Def Con from 0.0211164 to 0.0211164
Heightened Def Con from 0.0211337 to 0.0211337
Heightened Def Con from 0.0211841 to 0.0211841
Heightened Def Con from 0.0212157 to 0.0212157
Heightened Def Con from 0.0212345 to 0.0212345
Heightened Def Con from 0.0212848 to 0.0212848
Heightened Def Con from 0.0213352 to 0.0213352
Heightened Def Con from 0.0213855 to 0.0213855
Heightened Def Con from 0.0214143 to 0.0214143
Heightened Def Con from 0.0214359 to 0.0214359
Heightened Def Con from 0.0214863 to 0.0214863
Heightened Def Con from 0.0215136 to 0.0215136
Heightened Def Con from 0.0215366 to 0.0215366
Heightened Def Con from 0.0216373 to 0.0216373
Heightened Def Con from 0.0216876 to 0.0216876
Heightened Def Con from 0.021738 to 0.021738
Heightened Def Con from 0.0217883 to 0.0217883
Heightened Def Con from 0.0218115 to 0.0218115
Heightened Def Con from 0.0218387 to 0.0218387
Heightened Def Con from 0.021889 to 0.021889
Heightened Def Con from 0.0219393 to 0.0219393
Heightened Def Con from 0.0219896 to 0.0219896
Heightened Def Con from 0.0220399 to 0.0220399
Heightened Def Con from 0.0220903 to 0.0220903
Heightened Def Con from 0.0220903 to 0.0220903
Heightened Def Con from 0.0220903 to 0.0220903
Heightened Def Con from 0.0221406 to 0.0221406
Heightened Def Con from 0.0221909 to 0.0221909
Heightened Def Con from 0.022209 to 0.022209
Heightened Def Con from 0.0222412 to 0.0222412
Heightened Def Con from 0.0222915 to 0.0222915
Heightened Def Con from 0.0222915 to 0.0222915
Heightened Def Con from 0.0223418 to 0.0223418
Heightened Def Con from 0.0223921 to 0.0223921
Heightened Def Con from 0.0224424 to 0.0224424
Heightened Def Con from 0.0224926 to 0.0224926
Heightened Def Con from 0.0225073 to 0.0225073
Heightened Def Con from 0.0225073 to 0.0225073
Heightened Def Con from 0.0225429 to 0.0225429
Heightened Def Con from 0.0225932 to 0.0225932
Heightened Def Con from 0.0226067 to 0.0226067
Heightened Def Con from 0.0226067 to 0.0226067
Heightened Def Con from 0.0226435 to 0.0226435
Heightened Def Con from 0.0226435 to 0.0226435
Heightened Def Con from 0.0226937 to 0.0226937
Heightened Def Con from 0.0227062 to 0.0227062
Heightened Def Con from 0.022744 to 0.022744
Heightened Def Con from 0.0227942 to 0.0227942
Heightened Def Con from 0.0228057 to 0.0228057
Heightened Def Con from 0.0228445 to 0.0228445
Heightened Def Con from 0.0228445 to 0.0228445
Heightened Def Con from 0.0228947 to 0.0228947
Heightened Def Con from 0.0229052 to 0.0229052
Heightened Def Con from 0.0229052 to 0.0229052
Heightened Def Con from 0.022945 to 0.022945
Heightened Def Con from 0.0229952 to 0.0229952
Heightened Def Con from 0.0229952 to 0.0229952
Heightened Def Con from 0.0230048 to 0.0230048
Heightened Def Con from 0.0230454 to 0.0230454
Heightened Def Con from 0.0230957 to 0.0230957
Heightened Def Con from 0.0231043 to 0.0231043
Heightened Def Con from 0.0231459 to 0.0231459
Heightened Def Con from 0.0231961 to 0.0231961
Heightened Def Con from 0.0232463 to 0.0232463
Heightened Def Con from 0.0232965 to 0.0232965
Heightened Def Con from 0.0233035 to 0.0233035
Heightened Def Con from 0.0233467 to 0.0233467
Heightened Def Con from 0.0233969 to 0.0233969
Heightened Def Con from 0.0234031 to 0.0234031
Heightened Def Con from 0.0234471 to 0.0234471
Heightened Def Con from 0.0234973 to 0.0234973
Heightened Def Con from 0.0235474 to 0.0235474
Heightened Def Con from 0.0235976 to 0.0235976
Heightened Def Con from 0.0236024 to 0.0236024
Heightened Def Con from 0.0236478 to 0.0236478
Heightened Def Con from 0.0236979 to 0.0236979
Heightened Def Con from 0.0236979 to 0.0236979
Heightened Def Con from 0.0237481 to 0.0237481
Heightened Def Con from 0.0237481 to 0.0237481
Heightened Def Con from 0.0237982 to 0.0237982
Heightened Def Con from 0.0237982 to 0.0237982
Heightened Def Con from 0.0238484 to 0.0238484
Heightened Def Con from 0.0238985 to 0.0238985
Heightened Def Con from 0.0239015 to 0.0239015
Heightened Def Con from 0.0239486 to 0.0239486
Heightened Def Con from 0.0239988 to 0.0239988
Heightened Def Con from 0.0239988 to 0.0239988
Heightened Def Con from 0.0240489 to 0.0240489
Heightened Def Con from 0.024099 to 0.024099
Heightened Def Con from 0.0241491 to 0.0241491
Heightened Def Con from 0.0241992 to 0.0241992
Heightened Def Con from 0.0242493 to 0.0242493
Heightened Def Con from 0.0242493 to 0.0242493
Heightened Def Con from 0.0242994 to 0.0242994
Heightened Def Con from 0.0243006 to 0.0243006
Heightened Def Con from 0.0243495 to 0.0243495
Heightened Def Con from 0.0243996 to 0.0243996
Heightened Def Con from 0.0244004 to 0.0244005
Heightened Def Con from 0.0244496 to 0.0244496
Heightened Def Con from 0.0244997 to 0.0244997
Heightened Def Con from 0.0245003 to 0.0245003
Heightened Def Con from 0.0245498 to 0.0245498
Heightened Def Con from 0.0245498 to 0.0245498
Heightened Def Con from 0.0246498 to 0.0246498
Heightened Def Con from 0.0246999 to 0.0246999
Heightened Def Con from 0.0247499 to 0.0247499
Heightened Def Con from 0.0248 to 0.0248
Heightened Def Con from 0.02485 to 0.02485
Heightened Def Con from 0.0249 to 0.0249
Heightened Def Con from 0.0249 +++++++++++++++++++++++++++++++++++++to 0.0249
Heightened Def Con from 0.02495 to 0.02495
Heightened Def Con from 0.025 to 0.025
Heightened Def Con from 0.025 +to 0.025
Heightened Def Con from 0.025 +++++++to 0.025
Heightened Def Con from 0.025 ++++++++++to 0.025
Heightened Def Con from 0.025 to 0.025
Heightened Def Con from 0.025 +++++to 0.025
Heightened Def Con from 0.025 ++++++++++++++++++++++++to 0.025
Heightened Def Con from 0.025 +++++++to 0.025
Heightened Def Con from 0.025 +++to 0.025
Heightened Def Con from 0.025 +++++++++++++++++++++++++++to 0.025
Heightened Def Con from 0.025 +++++++++++++++++++++++++++++++++++to 0.025
Heightened Def Con from 0.02505 to 0.02505
Heightened Def Con from 0.02505 to 0.02505
Heightened Def Con from 0.0251 +++++++++++++++++++++++++++++++++to 0.0251
Heightened Def Con from 0.0251 +++++++++++++++++++++++++++++++++++++to 0.0251
Heightened Def Con from 0.02515 to 0.02515
Heightened Def Con from 0.0252 to 0.0252
Heightened Def Con from 0.0252499 to 0.0252499
Heightened Def Con from 0.0252999 to 0.0252999
Heightened Def Con from 0.0253001 to 0.0253001
Heightened Def Con from 0.0253498 to 0.0253498
Heightened Def Con from 0.0253998 to 0.0253998
Heightened Def Con from 0.0254498 to 0.0254498
Heightened Def Con from 0.0255003 to 0.0255003
Heightened Def Con from 0.0255496 to 0.0255496
Heightened Def Con from 0.0255496 to 0.0255496
Heightened Def Con from 0.0255996 to 0.0255996
Heightened Def Con from 0.0256495 to 0.0256495
Heightened Def Con from 0.0257493 to 0.0257493
Heightened Def Con from 0.0257992 to 0.0257992
Heightened Def Con from 0.0258008 to 0.0258008
Heightened Def Con from 0.0258491 to 0.0258491
Heightened Def Con from 0.025899 to 0.025899
Heightened Def Con from 0.025901 to 0.025901
Heightened Def Con from 0.0259489 to 0.0259489
Heightened Def Con from 0.0259988 to 0.0259988
Heightened Def Con from 0.0260487 to 0.0260487
Heightened Def Con from 0.0260487 to 0.0260487
Heightened Def Con from 0.0260985 to 0.0260985
Heightened Def Con from 0.0260985 to 0.0260985
Heightened Def Con from 0.0261015 to 0.0261015
Heightened Def Con from 0.0261484 to 0.0261484
Heightened Def Con from 0.0261982 to 0.0261982
Heightened Def Con from 0.0262018 to 0.0262018
Heightened Def Con from 0.0262481 to 0.0262481
Heightened Def Con from 0.026298 to 0.026298
Heightened Def Con from 0.0263021 to 0.0263021
Heightened Def Con from 0.0263478 to 0.0263478
Heightened Def Con from 0.0263976 to 0.0263976
Heightened Def Con from 0.0263976 to 0.0263976
Heightened Def Con from 0.0264024 to 0.0264024
Heightened Def Con from 0.0264475 to 0.0264475
Heightened Def Con from 0.0264973 to 0.0264973
Heightened Def Con from 0.0264973 to 0.0264973
Heightened Def Con from 0.0265471 to 0.0265471
Heightened Def Con from 0.0265969 to 0.0265969
Heightened Def Con from 0.0266031 to 0.0266031
Heightened Def Con from 0.0266467 to 0.0266467
Heightened Def Con from 0.0266965 to 0.0266965
Heightened Def Con from 0.0267035 to 0.0267035
Heightened Def Con from 0.0267463 to 0.0267463
Heightened Def Con from 0.0267463 to 0.0267463
Heightened Def Con from 0.0267961 to 0.0267961
Heightened Def Con from 0.0268459 to 0.0268459
Heightened Def Con from 0.0268957 to 0.0268957
Heightened Def Con from 0.0269455 to 0.0269455
Heightened Def Con from 0.0269952 to 0.0269952
Heightened Def Con from 0.0270048 to 0.0270048
Heightened Def Con from 0.027045 to 0.027045
Heightened Def Con from 0.0270948 to 0.0270948
Heightened Def Con from 0.0271053 to 0.0271053
Heightened Def Con from 0.0271053 to 0.0271053
Heightened Def Con from 0.0271445 to 0.0271445
Heightened Def Con from 0.0271943 to 0.0271943
Heightened Def Con from 0.027244 to 0.027244
Heightened Def Con from 0.0272938 to 0.0272938
Heightened Def Con from 0.0273063 to 0.0273063
Heightened Def Con from 0.0273435 to 0.0273435
Heightened Def Con from 0.0273933 to 0.0273933
Heightened Def Con from 0.0274068 to 0.0274068
Heightened Def Con from 0.027443 to 0.027443
Heightened Def Con from 0.0274927 to 0.0274927
Heightened Def Con from 0.0275074 to 0.0275074
Heightened Def Con from 0.0275074 to 0.0275074
Heightened Def Con from 0.0275424 to 0.0275424
Heightened Def Con from 0.0275922 to 0.0275922
Heightened Def Con from 0.0276079 to 0.0276079
Heightened Def Con from 0.0276419 to 0.0276419
Heightened Def Con from 0.0276916 to 0.0276916
Heightened Def Con from 0.0276916 to 0.0276916
Heightened Def Con from 0.0277085 to 0.0277085
Heightened Def Con from 0.0277413 to 0.0277413
Heightened Def Con from 0.027791 to 0.027791
Heightened Def Con from 0.0278407 to 0.0278407
Heightened Def Con from 0.0278904 to 0.0278904
Heightened Def Con from 0.0279097 to 0.0279097
Heightened Def Con from 0.0279401 to 0.0279401
Heightened Def Con from 0.0279898 to 0.0279898
Heightened Def Con from 0.0280104 to 0.0280104
Heightened Def Con from 0.0280394 to 0.0280394
Heightened Def Con from 0.0280891 to 0.0280891
Heightened Def Con from 0.028111 to 0.028111
Heightened Def Con from 0.0281388 to 0.0281388
Heightened Def Con from 0.0281388 to 0.0281388
Heightened Def Con from 0.0281885 to 0.0281885
Heightened Def Con from 0.0282381 to 0.0282381
Heightened Def Con from 0.0282878 to 0.0282878
Heightened Def Con from 0.0283124 to 0.0283124
Heightened Def Con from 0.0283375 to 0.0283375
Heightened Def Con from 0.0283871 to 0.0283871
Heightened Def Con from 0.028413 to 0.028413
Heightened Def Con from 0.0284368 to 0.0284368
Heightened Def Con from 0.0284864 to 0.0284864
Heightened Def Con from 0.0285361 to 0.0285361
Heightened Def Con from 0.0285857 to 0.0285857
Heightened Def Con from 0.0286354 to 0.0286354
Heightened Def Con from 0.0287152 to 0.0287152
Heightened Def Con from 0.0287347 to 0.0287347
Heightened Def Con from 0.0287843 to 0.0287843
Heightened Def Con from 0.0288159 to 0.0288159
Heightened Def Con from 0.028834 to 0.028834
Heightened Def Con from 0.0289332 to 0.0289332
Heightened Def Con from 0.0289829 to 0.0289829
Heightened Def Con from 0.0290174 to 0.0290174
Heightened Def Con from 0.0290325 to 0.0290325
Heightened Def Con from 0.0290821 to 0.0290821
Heightened Def Con from 0.0291317 to 0.0291317
Heightened Def Con from 0.0291814 to 0.0291814
Heightened Def Con from 0.029231 to 0.029231
Heightened Def Con from 0.0292806 to 0.0292806
Heightened Def Con from 0.0293197 to 0.0293197
Heightened Def Con from 0.0293302 to 0.0293302
Heightened Def Con from 0.0293798 to 0.0293798
Heightened Def Con from 0.0294295 to 0.0294295
Heightened Def Con from 0.0295213 to 0.0295213
Heightened Def Con from 0.0295287 to 0.0295287
Heightened Def Con from 0.0295783 to 0.0295783
Heightened Def Con from 0.029622 to 0.029622
Heightened Def Con from 0.0296279 to 0.0296279
Heightened Def Con from 0.0296775 to 0.0296775
Heightened Def Con from 0.0297228 to 0.0297228
Heightened Def Con from 0.0297271 to 0.0297271
Heightened Def Con from 0.0297768 to 0.0297768
Heightened Def Con from 0.0299256 to 0.0299256
Heightened Def Con from 0.0300248 to 0.0300248
Heightened Def Con from 0.030124 to 0.030124
Heightened Def Con from 0.030126 to 0.030126
Heightened Def Con from 0.0302232 to 0.0302232
Heightened Def Con from 0.0302268 to 0.0302268
Heightened Def Con from 0.0303225 to 0.0303225
Heightened Def Con from 0.0304217 to 0.0304217
Heightened Def Con from 0.0304284 to 0.0304284
Heightened Def Con from 0.0305209 to 0.0305209
Heightened Def Con from 0.0306202 to 0.0306202
Heightened Def Con from 0.0307194 to 0.0307194
Heightened Def Con from 0.0307307 to 0.0307307
Heightened Def Con from 0.0308186 to 0.0308186
Heightened Def Con from 0.0308683 to 0.0308683
Heightened Def Con from 0.0309179 to 0.0309179
Heightened Def Con from 0.0310171 to 0.0310171
Heightened Def Con from 0.0310171 to 0.0310171
Heightened Def Con from 0.031033 to 0.031033
Heightened Def Con from 0.0311164 to 0.0311164
Heightened Def Con from 0.0311337 to 0.0311337
Heightened Def Con from 0.0312157 to 0.0312157
Heightened Def Con from 0.0312157 to 0.0312157
Heightened Def Con from 0.0312345 to 0.0312345
Heightened Def Con from 0.031315 to 0.031315
Heightened Def Con from 0.0313352 to 0.0313352
Heightened Def Con from 0.0314143 to 0.0314143
Heightened Def Con from 0.0314359 to 0.0314359
Heightened Def Con from 0.0315136 to 0.0315136
Heightened Def Con from 0.0316129 to 0.0316129
Heightened Def Con from 0.0316373 to 0.0316373
Heightened Def Con from 0.0317122 to 0.0317122
Heightened Def Con from 0.031738 to 0.031738
Heightened Def Con from 0.0318115 to 0.0318115
Heightened Def Con from 0.0318387 to 0.0318387
Heightened Def Con from 0.0319109 to 0.0319109
Heightened Def Con from 0.0319393 to 0.0319393
Heightened Def Con from 0.0320102 to 0.0320102
Heightened Def Con from 0.0320399 to 0.0320399
Heightened Def Con from 0.0321096 to 0.0321096
Heightened Def Con from 0.0321406 to 0.0321406
Heightened Def Con from 0.032209 to 0.032209
Heightened Def Con from 0.0322412 to 0.0322412
Heightened Def Con from 0.0323084 to 0.0323084
Heightened Def Con from 0.0324078 to 0.0324078
Heightened Def Con from 0.0324424 to 0.0324424
Heightened Def Con from 0.0325073 to 0.0325073
Heightened Def Con from 0.0325429 to 0.0325429
Heightened Def Con from 0.0326067 to 0.0326067
Heightened Def Con from 0.0326435 to 0.0326435
Heightened Def Con from 0.0327062 to 0.0327062
Heightened Def Con from 0.0327062 to 0.0327062
Heightened Def Con from 0.032744 to 0.032744
Heightened Def Con from 0.0329052 to 0.0329052
Heightened Def Con from 0.032945 to 0.032945
Heightened Def Con from 0.0330048 to 0.0330048
Heightened Def Con from 0.0331043 to 0.0331043
Heightened Def Con from 0.0332039 to 0.0332039
Heightened Def Con from 0.0333035 to 0.0333035
Heightened Def Con from 0.0334031 to 0.0334031
Heightened Def Con from 0.0335027 to 0.0335027
Heightened Def Con from 0.0336024 to 0.0336024
Heightened Def Con from 0.033702 to 0.0337021
Heightened Def Con from 0.0338018 to 0.0338018
Heightened Def Con from 0.0338484 to 0.0338484
Heightened Def Con from 0.0339015 to 0.0339015
Heightened Def Con from 0.0340012 to 0.0340012
Heightened Def Con from 0.0340489 to 0.0340489
Heightened Def Con from 0.0342008 to 0.0342008
Heightened Def Con from 0.0343495 to 0.0343495
Heightened Def Con from 0.0344496 to 0.0344496
Heightened Def Con from 0.0345497 to 0.0345498
Heightened Def Con from 0.0345498 to 0.0345498
Heightened Def Con from 0.0346002 to 0.0346002
Heightened Def Con from 0.0346498 to 0.0346498
Heightened Def Con from 0.0347499 to 0.0347499
Heightened Def Con from 0.03485 to 0.03485
Heightened Def Con from 0.0349 to 0.0349
Heightened Def Con from 0.03505 to 0.03505
Heightened Def Con from 0.03505 to 0.03505
Heightened Def Con from 0.0351 to 0.0351
Heightened Def Con from 0.0352 ++++++++++++++++++++++++++++++++++to 0.0352001
Heightened Def Con from 0.0352499 to 0.0352499
Heightened Def Con from 0.0353001 to 0.0353001
Heightened Def Con from 0.0353498 to 0.0353498
Heightened Def Con from 0.0353498 to 0.0353498
Heightened Def Con from 0.0354498 to 0.0354498
Heightened Def Con from 0.0355003 to 0.0355003
Heightened Def Con from 0.0355496 to 0.0355496
Heightened Def Con from 0.0356004 to 0.0356004
Heightened Def Con from 0.0356495 to 0.0356495
Heightened Def Con from 0.0356505 to 0.0356505
Heightened Def Con from 0.0357493 to 0.0357493
Heightened Def Con from 0.0358008 to 0.0358008
Heightened Def Con from 0.035901 to 0.035901
Heightened Def Con from 0.0359489 to 0.0359489
Heightened Def Con from 0.0361015 to 0.0361015
Heightened Def Con from 0.0362018 to 0.0362018
Heightened Def Con from 0.0363021 to 0.0363021
Heightened Def Con from 0.0365027 to 0.0365027
Heightened Def Con from 0.0366031 to 0.0366031
Heightened Def Con from 0.0366467 to 0.0366467
Heightened Def Con from 0.0367035 to 0.0367035
Heightened Def Con from 0.0367463 to 0.0367463
Heightened Def Con from 0.0368039 to 0.0368039
Heightened Def Con from 0.0368459 to 0.0368459
Heightened Def Con from 0.0369043 to 0.0369043
Heightened Def Con from 0.0370048 to 0.0370048
Heightened Def Con from 0.0371053 to 0.0371053
Heightened Def Con from 0.0372058 to 0.0372058
Heightened Def Con from 0.0373063 to 0.0373063
Heightened Def Con from 0.0373435 to 0.0373435
Heightened Def Con from 0.0374068 to 0.0374068
Heightened Def Con from 0.0375074 to 0.0375074
Heightened Def Con from 0.0375424 to 0.0375424
Heightened Def Con from 0.0376079 to 0.0376079
Heightened Def Con from 0.0376419 to 0.0376419
Heightened Def Con from 0.0377085 to 0.0377085
Heightened Def Con from 0.0378091 to 0.0378091
Heightened Def Con from 0.0378091 to 0.0378091
Heightened Def Con from 0.0378407 to 0.0378407
Heightened Def Con from 0.0379097 to 0.0379097
Heightened Def Con from 0.0379097 to 0.0379097
Heightened Def Con from 0.0379401 to 0.0379401
Heightened Def Con from 0.0380104 to 0.0380104
Heightened Def Con from 0.0380394 to 0.0380394
Heightened Def Con from 0.038111 to 0.038111
Heightened Def Con from 0.038111 to 0.038111
Heightened Def Con from 0.0381388 to 0.0381388
Heightened Def Con from 0.0382117 to 0.0382117
Heightened Def Con from 0.0382878 to 0.0382878
Heightened Def Con from 0.0383124 to 0.0383124
Heightened Def Con from 0.038413 to 0.038413
Heightened Def Con from 0.0385137 to 0.0385137
Heightened Def Con from 0.0386145 to 0.0386145
Heightened Def Con from 0.0386354 to 0.0386354
Heightened Def Con from 0.0387152 to 0.0387152
Heightened Def Con from 0.0387347 to 0.0387347
Heightened Def Con from 0.0388159 to 0.0388159
Heightened Def Con from 0.0389167 to 0.0389167
Heightened Def Con from 0.0389332 to 0.0389332
Heightened Def Con from 0.0390174 to 0.0390174
Heightened Def Con from 0.0390325 to 0.0390325
Heightened Def Con from 0.0391182 to 0.0391182
Heightened Def Con from 0.0391317 to 0.0391317
Heightened Def Con from 0.0392189 to 0.0392189
Heightened Def Con from 0.0393197 to 0.0393197
Heightened Def Con from 0.0394205 to 0.0394205
Heightened Def Con from 0.0394295 to 0.0394295
Heightened Def Con from 0.0394709 to 0.0394709
Heightened Def Con from 0.0395213 to 0.0395213
Heightened Def Con from 0.0395287 to 0.0395287
Heightened Def Con from 0.039622 to 0.039622
Heightened Def Con from 0.039622 to 0.039622
Heightened Def Con from 0.039622 to 0.039622
Heightened Def Con from 0.0397228 to 0.0397228
Heightened Def Con from 0.0398236 to 0.0398236
Heightened Def Con from 0.0398236 to 0.0398236
Heightened Def Con from 0.0398264 to 0.0398264
Heightened Def Con from 0.0399244 to 0.0399244
Heightened Def Con from 0.0399244 to 0.0399244
Heightened Def Con from 0.0400248 to 0.0400248
Heightened Def Con from 0.040126 to 0.040126
Heightened Def Con from 0.0401764 to 0.0401764
Heightened Def Con from 0.0402772 to 0.0402772
Heightened Def Con from 0.0403225 to 0.0403225
Heightened Def Con from 0.0403276 to 0.0403276
Heightened Def Con from 0.040378 to 0.040378
Heightened Def Con from 0.0404284 to 0.0404284
Heightened Def Con from 0.0404787 to 0.0404787
Heightened Def Con from 0.0404787 to 0.0404787
Heightened Def Con from 0.0405291 to 0.0405291
Heightened Def Con from 0.0405795 to 0.0405795
Heightened Def Con from 0.0406803 to 0.0406803
Heightened Def Con from 0.0407307 to 0.0407307
Heightened Def Con from 0.0408186 to 0.0408186
Heightened Def Con from 0.0408315 to 0.0408315
Heightened Def Con from 0.0408818 to 0.0408818
Heightened Def Con from 0.0409179 to 0.0409179
Heightened Def Con from 0.0409179 to 0.0409179
Heightened Def Con from 0.0409322 to 0.0409322
Heightened Def Con from 0.0409826 to 0.0409826
Heightened Def Con from 0.0410171 to 0.0410171
Heightened Def Con from 0.041033 to 0.041033
Heightened Def Con from 0.0410833 to 0.0410833
Heightened Def Con from 0.0410833 to 0.0410833
Heightened Def Con from 0.0411164 to 0.0411164
Heightened Def Con from 0.0411337 to 0.0411337
Heightened Def Con from 0.0411841 to 0.0411841
Heightened Def Con from 0.0412345 to 0.0412345
Heightened Def Con from 0.0412848 to 0.0412848
Heightened Def Con from 0.0413352 to 0.0413352
Heightened Def Con from 0.0413855 to 0.0413855
Heightened Def Con from 0.0414359 to 0.0414359
Heightened Def Con from 0.0415136 to 0.0415136
Heightened Def Con from 0.0415366 to 0.0415366
Heightened Def Con from 0.0415869 to 0.0415869
Heightened Def Con from 0.041587 to 0.041587
Heightened Def Con from 0.041587 to 0.041587
Heightened Def Con from 0.0416129 to 0.0416129
Heightened Def Con from 0.0416373 to 0.0416373
Heightened Def Con from 0.041738 to 0.041738
Heightened Def Con from 0.0417883 to 0.0417883
Heightened Def Con from 0.0417883 to 0.0417883
Heightened Def Con from 0.0418115 to 0.0418115
Heightened Def Con from 0.041889 to 0.041889
Heightened Def Con from 0.0419109 to 0.0419109
Heightened Def Con from 0.0420102 to 0.0420102
Heightened Def Con from 0.0420399 to 0.0420399
Heightened Def Con from 0.0420903 to 0.0420903
Heightened Def Con from 0.0421096 to 0.0421096
Heightened Def Con from 0.0421406 to 0.0421406
Heightened Def Con from 0.0421909 to 0.0421909
Heightened Def Con from 0.0422412 to 0.0422412
Heightened Def Con from 0.0422915 to 0.0422915
Heightened Def Con from 0.0423084 to 0.0423084
Heightened Def Con from 0.0423084 to 0.0423084
Heightened Def Con from 0.0423418 to 0.0423418
Heightened Def Con from 0.0423921 to 0.0423921
Heightened Def Con from 0.0424078 to 0.0424078
Heightened Def Con from 0.0424078 to 0.0424078
Heightened Def Con from 0.0424424 to 0.0424424
Heightened Def Con from 0.0424926 to 0.0424926
Heightened Def Con from 0.0425073 to 0.0425073
Heightened Def Con from 0.0425429 to 0.0425429
Heightened Def Con from 0.0425932 to 0.0425932
Heightened Def Con from 0.0426067 to 0.0426067
Heightened Def Con from 0.0427062 to 0.0427062
Heightened Def Con from 0.042744 to 0.042744
Heightened Def Con from 0.0427942 to 0.0427942
Heightened Def Con from 0.0428057 to 0.0428057
Heightened Def Con from 0.0428445 to 0.0428445
Heightened Def Con from 0.0428947 to 0.0428947
Heightened Def Con from 0.0429952 to 0.0429952
Heightened Def Con from 0.0430048 to 0.0430048
Heightened Def Con from 0.0430957 to 0.0430957
Heightened Def Con from 0.0431043 to 0.0431043
Heightened Def Con from 0.0431961 to 0.0431961
Heightened Def Con from 0.0432463 to 0.0432463
Heightened Def Con from 0.0432965 to 0.0432965
Heightened Def Con from 0.0433035 to 0.0433035
Heightened Def Con from 0.0433467 to 0.0433467
Heightened Def Con from 0.0433969 to 0.0433969
Heightened Def Con from 0.0433969 to 0.0433969
Heightened Def Con from 0.0434031 to 0.0434031
Heightened Def Con from 0.0434471 to 0.0434471
Heightened Def Con from 0.0435474 to 0.0435474
Heightened Def Con from 0.0436478 to 0.0436478
Heightened Def Con from 0.0436979 to 0.0436979
Heightened Def Con from 0.0437481 to 0.0437481
Heightened Def Con from 0.0438484 to 0.0438484
Heightened Def Con from 0.0438985 to 0.0438985
Heightened Def Con from 0.0439015 to 0.0439015
Heightened Def Con from 0.0439486 to 0.0439486
Heightened Def Con from 0.0439983 to 0.0439983
Heightened Def Con from 0.0439988 to 0.0439988
Heightened Def Con from 0.0440489 to 0.0440489
Heightened Def Con from 0.0441491 to 0.0441491
Heightened Def Con from 0.0441992 to 0.0441992
Heightened Def Con from 0.0442008 to 0.0442008
Heightened Def Con from 0.0442493 to 0.0442493
Heightened Def Con from 0.0442994 to 0.0442994
Heightened Def Con from 0.0443495 to 0.0443495
Heightened Def Con from 0.0443996 to 0.0443996
Heightened Def Con from 0.0443996 to 0.0443996
Heightened Def Con from 0.0444496 to 0.0444496
Heightened Def Con from 0.0444997 to 0.0444997
Heightened Def Con from 0.0444997 to 0.0444997
Heightened Def Con from 0.0445003 to 0.0445003
Heightened Def Con from 0.0445498 to 0.0445498
Heightened Def Con from 0.0445998 to 0.0445998
Heightened Def Con from 0.0446002 to 0.0446002
Heightened Def Con from 0.0446498 to 0.0446498
Heightened Def Con from 0.0447001 to 0.0447001
Heightened Def Con from 0.0447499 to 0.0447499
Heightened Def Con from 0.0447499 to 0.0447499
Heightened Def Con from 0.0448 to 0.0448
Heightened Def Con from 0.0448 to 0.0448001
Heightened Def Con from 0.04485 to 0.04485
Heightened Def Con from 0.04495 to 0.04495
Heightened Def Con from 0.045 +++to 0.045
Heightened Def Con from 0.045 ++to 0.045
Heightened Def Con from 0.045 to 0.045
Heightened Def Con from 0.045 ++++++++++++++++++to 0.045
Heightened Def Con from 0.045 +++++++to 0.045
Heightened Def Con from 0.045 +++++++++++++to 0.045
Heightened Def Con from 0.045 +++++++++++++++++++++++++++to 0.045
Heightened Def Con from 0.045 ++to 0.045
Heightened Def Con from 0.045 ++++++++to 0.045
Heightened Def Con from 0.045 +++++to 0.045
Heightened Def Con from 0.045 ++++to 0.045
Heightened Def Con from 0.045 ++++++++++++++++++++++++++to 0.045
Heightened Def Con from 0.045 to 0.045
Heightened Def Con from 0.045 +++++++++++++++++to 0.045
Heightened Def Con from 0.045 +++++to 0.045
Heightened Def Con from 0.045 ++++++++to 0.045
Heightened Def Con from 0.045 ++++++++to 0.045
Heightened Def Con from 0.045 to 0.045
Heightened Def Con from 0.045 ++++++to 0.045
Heightened Def Con from 0.045 +to 0.045
Heightened Def Con from 0.045 ++++++++++++++++to 0.045
Heightened Def Con from 0.045 +++++++++++++++++++++++++++++++++++to 0.045
Heightened Def Con from 0.04505 to 0.04505
Heightened Def Con from 0.0451 to 0.0451
Heightened Def Con from 0.0451 ++++++++++++++++++++++++++++++++++++++to 0.0451
Heightened Def Con from 0.04515 to 0.04515
Heightened Def Con from 0.0452499 to 0.0452499
Heightened Def Con from 0.0452999 to 0.0452999
Heightened Def Con from 0.0453001 to 0.0453001
Heightened Def Con from 0.0453498 to 0.0453498
Heightened Def Con from 0.0453998 to 0.0453998
Heightened Def Con from 0.0454498 to 0.0454498
Heightened Def Con from 0.0454997 to 0.0454997
Heightened Def Con from 0.0455496 to 0.0455496
Heightened Def Con from 0.0455996 to 0.0455996
Heightened Def Con from 0.0456495 to 0.0456495
Heightened Def Con from 0.0456994 to 0.0456994
Heightened Def Con from 0.0457006 to 0.0457006
Heightened Def Con from 0.0457992 to 0.0457992
Heightened Def Con from 0.0458491 to 0.0458491
Heightened Def Con from 0.045899 to 0.045899
Heightened Def Con from 0.045901 to 0.045901
Heightened Def Con from 0.0459489 to 0.0459489
Heightened Def Con from 0.0459988 to 0.0459988
Heightened Def Con from 0.0460487 to 0.0460487
Heightened Def Con from 0.0460985 to 0.0460985
Heightened Def Con from 0.0460985 to 0.0460985
Heightened Def Con from 0.0461484 to 0.0461484
Heightened Def Con from 0.0461982 to 0.0461982
Heightened Def Con from 0.0461982 to 0.0461982
Heightened Def Con from 0.0462018 to 0.0462018
Heightened Def Con from 0.046298 to 0.046298
Heightened Def Con from 0.0463021 to 0.0463021
Heightened Def Con from 0.0463976 to 0.0463976
Heightened Def Con from 0.0464475 to 0.0464475
Heightened Def Con from 0.0464973 to 0.0464973
Heightened Def Con from 0.0465027 to 0.0465027
Heightened Def Con from 0.0465471 to 0.0465471
Heightened Def Con from 0.0465969 to 0.0465969
Heightened Def Con from 0.0466965 to 0.0466965
Heightened Def Con from 0.0467035 to 0.0467035
Heightened Def Con from 0.0467463 to 0.0467463
Heightened Def Con from 0.0467961 to 0.0467961
Heightened Def Con from 0.0468039 to 0.0468039
Heightened Def Con from 0.0468957 to 0.0468957
Heightened Def Con from 0.0469455 to 0.0469455
Heightened Def Con from 0.0469952 to 0.0469952
Heightened Def Con from 0.047045 to 0.047045
Heightened Def Con from 0.0470948 to 0.0470948
Heightened Def Con from 0.0471445 to 0.0471445
Heightened Def Con from 0.0471943 to 0.0471943
Heightened Def Con from 0.0472938 to 0.0472938
Heightened Def Con from 0.0473063 to 0.0473063
Heightened Def Con from 0.0473063 to 0.0473063
Heightened Def Con from 0.0473435 to 0.0473435
Heightened Def Con from 0.0473933 to 0.0473933
Heightened Def Con from 0.0474068 to 0.0474068
Heightened Def Con from 0.0474927 to 0.0474927
Heightened Def Con from 0.0475074 to 0.0475074
Heightened Def Con from 0.0475424 to 0.0475424
Heightened Def Con from 0.0475922 to 0.0475922
Heightened Def Con from 0.0476079 to 0.0476079
Heightened Def Con from 0.0476079 to 0.0476079
Heightened Def Con from 0.0476419 to 0.0476419
Heightened Def Con from 0.0476916 to 0.0476916
Heightened Def Con from 0.0477413 to 0.0477413
Heightened Def Con from 0.047791 to 0.047791
Heightened Def Con from 0.0478091 to 0.0478091
Heightened Def Con from 0.0478904 to 0.0478904
Heightened Def Con from 0.0479097 to 0.0479097
Heightened Def Con from 0.0479898 to 0.0479898
Heightened Def Con from 0.0480104 to 0.0480104
Heightened Def Con from 0.0480394 to 0.0480394
Heightened Def Con from 0.0480891 to 0.0480891
Heightened Def Con from 0.048111 to 0.048111
Heightened Def Con from 0.048111 to 0.048111
Heightened Def Con from 0.0481388 to 0.0481388
Heightened Def Con from 0.0481885 to 0.0481885
Heightened Def Con from 0.0482381 to 0.0482381
Heightened Def Con from 0.0483375 to 0.0483375
Heightened Def Con from 0.0483871 to 0.0483871
Heightened Def Con from 0.048413 to 0.048413
Heightened Def Con from 0.048413 to 0.048413
Heightened Def Con from 0.0484368 to 0.0484368
Heightened Def Con from 0.0485857 to 0.0485857
Heightened Def Con from 0.0486145 to 0.0486145
Heightened Def Con from 0.0486354 to 0.0486354
Heightened Def Con from 0.048685 to 0.048685
Heightened Def Con from 0.0487152 to 0.0487152
Heightened Def Con from 0.0487347 to 0.0487347
Heightened Def Con from 0.048834 to 0.048834
Heightened Def Con from 0.0488836 to 0.0488836
Heightened Def Con from 0.0489167 to 0.0489167
Heightened Def Con from 0.0489829 to 0.0489829
Heightened Def Con from 0.0490325 to 0.0490325
Heightened Def Con from 0.0490821 to 0.0490821
Heightened Def Con from 0.0490821 to 0.0490821
Heightened Def Con from 0.0491814 to 0.0491814
Heightened Def Con from 0.049231 to 0.049231
Heightened Def Con from 0.0493302 to 0.0493302
Heightened Def Con from 0.0494295 to 0.0494295
Heightened Def Con from 0.0495213 to 0.0495213
Heightened Def Con from 0.0495213 to 0.0495213
Heightened Def Con from 0.0495783 to 0.0495783
Heightened Def Con from 0.049622 to 0.049622
Heightened Def Con from 0.0496279 to 0.0496279
Heightened Def Con from 0.0496775 to 0.0496775
Heightened Def Con from 0.0497228 to 0.0497228
Heightened Def Con from 0.0498236 to 0.0498236
Heightened Def Con from 0.049876 to 0.049876
Heightened Def Con from 0.0499244 to 0.0499244
Heightened Def Con from 0.0500248 to 0.0500248
Heightened Def Con from 0.050124 to 0.050124
Heightened Def Con from 0.0502232 to 0.0502232
Heightened Def Con from 0.0502268 to 0.0502268
Heightened Def Con from 0.0503225 to 0.0503225
Heightened Def Con from 0.0503276 to 0.0503276
Heightened Def Con from 0.0504217 to 0.0504217
Heightened Def Con from 0.0504284 to 0.0504284
Heightened Def Con from 0.0505209 to 0.0505209
Heightened Def Con from 0.0506202 to 0.0506202
Heightened Def Con from 0.0507194 to 0.0507194
Heightened Def Con from 0.0507194 to 0.0507194
Heightened Def Con from 0.0508186 to 0.0508186
Heightened Def Con from 0.0508186 to 0.0508186
Heightened Def Con from 0.0508683 to 0.0508683
Heightened Def Con from 0.0509179 to 0.0509179
Heightened Def Con from 0.0510171 to 0.0510171
Heightened Def Con from 0.0511164 to 0.0511164
Heightened Def Con from 0.0511337 to 0.0511337
Heightened Def Con from 0.051166 to 0.051166
Heightened Def Con from 0.0512157 to 0.0512157
Heightened Def Con from 0.0512345 to 0.0512345
Heightened Def Con from 0.051315 to 0.051315
Heightened Def Con from 0.0514143 to 0.0514143
Heightened Def Con from 0.0514143 to 0.0514143
Heightened Def Con from 0.0515136 to 0.0515136
Heightened Def Con from 0.0516129 to 0.0516129
Heightened Def Con from 0.0516373 to 0.0516373
Heightened Def Con from 0.0517122 to 0.0517122
Heightened Def Con from 0.0518115 to 0.0518115
Heightened Def Con from 0.0519109 to 0.0519109
Heightened Def Con from 0.0520102 to 0.0520102
Heightened Def Con from 0.0520399 to 0.0520399
Heightened Def Con from 0.0521096 to 0.0521096
Heightened Def Con from 0.052209 to 0.052209
Heightened Def Con from 0.052209 to 0.052209
Heightened Def Con from 0.0522412 to 0.0522412
Heightened Def Con from 0.0523084 to 0.0523084
Heightened Def Con from 0.0524078 to 0.0524078
Heightened Def Con from 0.0524424 to 0.0524424
Heightened Def Con from 0.0525073 to 0.0525073
Heightened Def Con from 0.0525429 to 0.0525429
Heightened Def Con from 0.0526067 to 0.0526067
Heightened Def Con from 0.0526435 to 0.0526435
Heightened Def Con from 0.0527062 to 0.0527062
Heightened Def Con from 0.0528057 to 0.0528057
Heightened Def Con from 0.0529052 to 0.0529052
Heightened Def Con from 0.0530048 to 0.0530048
Heightened Def Con from 0.0530048 to 0.0530048
Heightened Def Con from 0.0530454 to 0.0530454
Heightened Def Con from 0.0531043 to 0.0531043
Heightened Def Con from 0.0531459 to 0.0531459
Heightened Def Con from 0.0532039 to 0.0532039
Heightened Def Con from 0.0533035 to 0.0533035
Heightened Def Con from 0.0534031 to 0.0534031
Heightened Def Con from 0.0535027 to 0.0535027
Heightened Def Con from 0.0536024 to 0.0536024
Heightened Def Con from 0.0536478 to 0.0536478
Heightened Def Con from 0.053702 to 0.0537021
Heightened Def Con from 0.0538018 to 0.0538018
Heightened Def Con from 0.0538484 to 0.0538484
Heightened Def Con from 0.0539015 to 0.0539015
Heightened Def Con from 0.0539486 to 0.0539486
Heightened Def Con from 0.0540012 to 0.0540012
Heightened Def Con from 0.0540489 to 0.0540489
Heightened Def Con from 0.0542008 to 0.0542008
Heightened Def Con from 0.0543006 to 0.0543006
Heightened Def Con from 0.0544004 to 0.0544004
Heightened Def Con from 0.0544496 to 0.0544496
Heightened Def Con from 0.0545498 to 0.0545498
Heightened Def Con from 0.0546498 to 0.0546498
Heightened Def Con from 0.0547001 to 0.0547001
Heightened Def Con from 0.0547499 to 0.0547499
Heightened Def Con from 0.055 +++++++++++++++++++++++++++++++++to 0.055
Heightened Def Con from 0.05505 to 0.05505
Heightened Def Con from 0.05505 to 0.05505
Heightened Def Con from 0.0551 to 0.0551
Heightened Def Con from 0.05515 to 0.05515
Heightened Def Con from 0.0552 to 0.0552
Heightened Def Con from 0.0552499 to 0.0552499
Heightened Def Con from 0.0553498 to 0.0553498
Heightened Def Con from 0.0554498 to 0.0554498
Heightened Def Con from 0.0556495 to 0.0556495
Heightened Def Con from 0.0557493 to 0.0557493
Heightened Def Con from 0.0558008 to 0.0558008
Heightened Def Con from 0.0560487 to 0.0560487
Heightened Def Con from 0.0561484 to 0.0561484
Heightened Def Con from 0.0562018 to 0.0562018
Heightened Def Con from 0.0562481 to 0.0562481
Heightened Def Con from 0.0563021 to 0.0563021
Heightened Def Con from 0.0564024 to 0.0564024
Heightened Def Con from 0.0565027 to 0.0565027
Heightened Def Con from 0.0566031 to 0.0566031
Heightened Def Con from 0.0567035 to 0.0567035
Heightened Def Con from 0.0568039 to 0.0568039
Heightened Def Con from 0.0569043 to 0.0569043
Heightened Def Con from 0.0569455 to 0.0569455
Heightened Def Con from 0.0570048 to 0.0570048
Heightened Def Con from 0.057045 to 0.057045
Heightened Def Con from 0.0571053 to 0.0571053
Heightened Def Con from 0.0571445 to 0.0571445
Heightened Def Con from 0.0572058 to 0.0572058
Heightened Def Con from 0.0573063 to 0.0573063
Heightened Def Con from 0.0574068 to 0.0574068
Heightened Def Con from 0.0575074 to 0.0575074
Heightened Def Con from 0.0575424 to 0.0575424
Heightened Def Con from 0.0576079 to 0.0576079
Heightened Def Con from 0.0577085 to 0.0577085
Heightened Def Con from 0.0578091 to 0.0578091
Heightened Def Con from 0.0579097 to 0.0579097
Heightened Def Con from 0.0580104 to 0.0580104
Heightened Def Con from 0.0580104 to 0.0580104
Heightened Def Con from 0.0580394 to 0.0580394
Heightened Def Con from 0.058111 to 0.058111
Heightened Def Con from 0.0582117 to 0.0582117
Heightened Def Con from 0.0583124 to 0.0583124
Heightened Def Con from 0.058413 to 0.058413
Heightened Def Con from 0.0585137 to 0.0585137
Heightened Def Con from 0.0586145 to 0.0586145
Heightened Def Con from 0.0586145 to 0.0586145
Heightened Def Con from 0.0586354 to 0.0586354
Heightened Def Con from 0.0587152 to 0.0587152
Heightened Def Con from 0.0588159 to 0.0588159
Heightened Def Con from 0.0589167 to 0.0589167
Heightened Def Con from 0.0590174 to 0.0590174
Heightened Def Con from 0.0590325 to 0.0590325
Heightened Def Con from 0.0591182 to 0.0591182
Heightened Def Con from 0.0592189 to 0.0592189
Heightened Def Con from 0.0593197 to 0.0593197
Heightened Def Con from 0.0593302 to 0.0593302
Heightened Def Con from 0.0594205 to 0.0594205
Heightened Def Con from 0.0595213 to 0.0595213
Heightened Def Con from 0.059622 to 0.059622
Heightened Def Con from 0.0596279 to 0.0596279
Heightened Def Con from 0.0597228 to 0.0597228
Heightened Def Con from 0.0598236 to 0.0598236
Heightened Def Con from 0.0599244 to 0.0599244
Heightened Def Con from 0.0600248 to 0.0600248
Heightened Def Con from 0.0600756 to 0.0600756
Heightened Def Con from 0.0602268 to 0.0602268
Heightened Def Con from 0.0602772 to 0.0602772
Heightened Def Con from 0.0603225 to 0.0603225
Heightened Def Con from 0.0603276 to 0.0603276
Heightened Def Con from 0.0604217 to 0.0604217
Heightened Def Con from 0.0605209 to 0.0605209
Heightened Def Con from 0.0606803 to 0.0606803
Heightened Def Con from 0.0607194 to 0.0607194
Heightened Def Con from 0.0607811 to 0.0607811
Heightened Def Con from 0.0608186 to 0.0608186
Heightened Def Con from 0.0608818 to 0.0608818
Heightened Def Con from 0.0609179 to 0.0609179
Heightened Def Con from 0.0609322 to 0.0609322
Heightened Def Con from 0.0610171 to 0.0610171
Heightened Def Con from 0.0610833 to 0.0610833
Heightened Def Con from 0.0612345 to 0.0612345
Heightened Def Con from 0.0612848 to 0.0612848
Heightened Def Con from 0.061315 to 0.061315
Heightened Def Con from 0.0613352 to 0.0613352
Heightened Def Con from 0.0613855 to 0.0613855
Heightened Def Con from 0.0613855 to 0.0613855
Heightened Def Con from 0.0614359 to 0.0614359
Heightened Def Con from 0.0614863 to 0.0614863
Heightened Def Con from 0.0615366 to 0.0615366
Heightened Def Con from 0.061587 to 0.061587
Heightened Def Con from 0.0616876 to 0.0616876
Heightened Def Con from 0.0617122 to 0.0617122
Heightened Def Con from 0.0617883 to 0.0617883
Heightened Def Con from 0.0618387 to 0.0618387
Heightened Def Con from 0.061889 to 0.061889
Heightened Def Con from 0.0619109 to 0.0619109
Heightened Def Con from 0.0619393 to 0.0619393
Heightened Def Con from 0.0619896 to 0.0619896
Heightened Def Con from 0.0620903 to 0.0620903
Heightened Def Con from 0.0621096 to 0.0621096
Heightened Def Con from 0.0621406 to 0.0621406
Heightened Def Con from 0.0621909 to 0.0621909
Heightened Def Con from 0.062209 to 0.062209
Heightened Def Con from 0.062209 to 0.062209
Heightened Def Con from 0.0622412 to 0.0622412
Heightened Def Con from 0.0622915 to 0.0622915
Heightened Def Con from 0.0624078 to 0.0624078
Heightened Def Con from 0.0624424 to 0.0624424
Heightened Def Con from 0.0625429 to 0.0625429
Heightened Def Con from 0.0626067 to 0.0626067
Heightened Def Con from 0.0626435 to 0.0626435
Heightened Def Con from 0.0626937 to 0.0626937
Heightened Def Con from 0.062744 to 0.062744
Heightened Def Con from 0.0627942 to 0.0627942
Heightened Def Con from 0.0627942 to 0.0627942
Heightened Def Con from 0.0628445 to 0.0628445
Heightened Def Con from 0.0628947 to 0.0628947
Heightened Def Con from 0.0629052 to 0.0629052
Heightened Def Con from 0.062945 to 0.062945
Heightened Def Con from 0.0629952 to 0.0629952
Heightened Def Con from 0.0630048 to 0.0630048
Heightened Def Con from 0.0630454 to 0.0630454
Heightened Def Con from 0.0630957 to 0.0630957
Heightened Def Con from 0.0631043 to 0.0631043
Heightened Def Con from 0.0631459 to 0.0631459
Heightened Def Con from 0.0632039 to 0.0632039
Heightened Def Con from 0.0632965 to 0.0632965
Heightened Def Con from 0.0632965 to 0.0632965
Heightened Def Con from 0.0633467 to 0.0633467
Heightened Def Con from 0.0633969 to 0.0633969
Heightened Def Con from 0.0634471 to 0.0634471
Heightened Def Con from 0.0635976 to 0.0635976
Heightened Def Con from 0.0636024 to 0.0636024
Heightened Def Con from 0.0637481 to 0.0637481
Heightened Def Con from 0.0637982 to 0.0637982
Heightened Def Con from 0.0638018 to 0.0638018
Heightened Def Con from 0.0638985 to 0.0638985
Heightened Def Con from 0.0639988 to 0.0639988
Heightened Def Con from 0.0640012 to 0.0640012
Heightened Def Con from 0.064099 to 0.064099
Heightened Def Con from 0.0643006 to 0.0643006
Heightened Def Con from 0.0643996 to 0.0643996
Heightened Def Con from 0.0644496 to 0.0644496
Heightened Def Con from 0.0644997 to 0.0644997
Heightened Def Con from 0.0645998 to 0.0645998
Heightened Def Con from 0.0646999 to 0.0646999
Heightened Def Con from 0.0647499 to 0.0647499
Heightened Def Con from 0.0648 to 0.0648001
Heightened Def Con from 0.06485 to 0.06485
Heightened Def Con from 0.0649 to 0.0649
Heightened Def Con from 0.0649 to 0.0649
Heightened Def Con from 0.0649 +++++++++++++++++++++++++++++++++++++to 0.0649
Heightened Def Con from 0.06495 to 0.06495
Heightened Def Con from 0.065 +++++++++++++++++++++++++++++++++++++to 0.065
Heightened Def Con from 0.06505 to 0.06505
Heightened Def Con from 0.0651 to 0.0651
Heightened Def Con from 0.0651 ++++++++++++++++++++++++++++++++++++to 0.0651
Heightened Def Con from 0.06515 to 0.06515
Heightened Def Con from 0.0652 to 0.0652
Heightened Def Con from 0.0652499 to 0.0652499
Heightened Def Con from 0.0653498 to 0.0653498
Heightened Def Con from 0.0654498 to 0.0654498
Heightened Def Con from 0.0655996 to 0.0655996
Heightened Def Con from 0.0656004 to 0.0656004
Heightened Def Con from 0.0656495 to 0.0656495
Heightened Def Con from 0.0657493 to 0.0657493
Heightened Def Con from 0.0657992 to 0.0657992
Heightened Def Con from 0.065899 to 0.065899
Heightened Def Con from 0.0659489 to 0.0659489
Heightened Def Con from 0.0659988 to 0.0659988
Heightened Def Con from 0.0660985 to 0.0660985
Heightened Def Con from 0.0661484 to 0.0661484
Heightened Def Con from 0.0661982 to 0.0661982
Heightened Def Con from 0.0662481 to 0.0662481
Heightened Def Con from 0.066298 to 0.066298
Heightened Def Con from 0.0663976 to 0.0663976
Heightened Def Con from 0.0664973 to 0.0664973
Heightened Def Con from 0.0665027 to 0.0665027
Heightened Def Con from 0.0665471 to 0.0665471
Heightened Def Con from 0.0665969 to 0.0665969
Heightened Def Con from 0.0666467 to 0.0666467
Heightened Def Con from 0.0666965 to 0.0666965
Heightened Def Con from 0.0667035 to 0.0667035
Heightened Def Con from 0.0667463 to 0.0667463
Heightened Def Con from 0.0667961 to 0.0667961
Heightened Def Con from 0.0668459 to 0.0668459
Heightened Def Con from 0.0668957 to 0.0668957
Heightened Def Con from 0.0669043 to 0.0669043
Heightened Def Con from 0.0669952 to 0.0669952
Heightened Def Con from 0.0670948 to 0.0670948
Heightened Def Con from 0.0671053 to 0.0671053
Heightened Def Con from 0.0671445 to 0.0671445
Heightened Def Con from 0.0671943 to 0.0671943
Heightened Def Con from 0.067244 to 0.067244
Heightened Def Con from 0.0672938 to 0.0672938
Heightened Def Con from 0.0672938 to 0.0672938
Heightened Def Con from 0.0673063 to 0.0673063
Heightened Def Con from 0.0673933 to 0.0673933
Heightened Def Con from 0.067443 to 0.067443
Heightened Def Con from 0.0674927 to 0.0674927
Heightened Def Con from 0.0675074 to 0.0675074
Heightened Def Con from 0.0675922 to 0.0675922
Heightened Def Con from 0.0676419 to 0.0676419
Heightened Def Con from 0.0677085 to 0.0677085
Heightened Def Con from 0.0677085 to 0.0677085
Heightened Def Con from 0.0677413 to 0.0677413
Heightened Def Con from 0.067791 to 0.067791
Heightened Def Con from 0.0678904 to 0.0678904
Heightened Def Con from 0.0679097 to 0.0679097
Heightened Def Con from 0.0680104 to 0.0680104
Heightened Def Con from 0.0680394 to 0.0680394
Heightened Def Con from 0.0680891 to 0.0680891
Heightened Def Con from 0.0681885 to 0.0681885
Heightened Def Con from 0.0682878 to 0.0682878
Heightened Def Con from 0.068413 to 0.068413
Heightened Def Con from 0.0684368 to 0.0684368
Heightened Def Con from 0.0684864 to 0.0684864
Heightened Def Con from 0.0685137 to 0.0685137
Heightened Def Con from 0.0685857 to 0.0685857
Heightened Def Con from 0.0686145 to 0.0686145
Heightened Def Con from 0.068685 to 0.068685
Heightened Def Con from 0.0687152 to 0.0687152
Heightened Def Con from 0.0687843 to 0.0687843
Heightened Def Con from 0.0688159 to 0.0688159
Heightened Def Con from 0.0688836 to 0.0688836
Heightened Def Con from 0.0689167 to 0.0689167
Heightened Def Con from 0.0689332 to 0.0689332
Heightened Def Con from 0.0690325 to 0.0690325
Heightened Def Con from 0.0691182 to 0.0691182
Heightened Def Con from 0.0692189 to 0.0692189
Heightened Def Con from 0.069231 to 0.069231
Heightened Def Con from 0.0692806 to 0.0692806
Heightened Def Con from 0.0693302 to 0.0693302
Heightened Def Con from 0.0693798 to 0.0693798
Heightened Def Con from 0.0694205 to 0.0694205
Heightened Def Con from 0.0694791 to 0.0694791
Heightened Def Con from 0.0695213 to 0.0695213
Heightened Def Con from 0.0695287 to 0.0695287
Heightened Def Con from 0.0695783 to 0.0695783
Heightened Def Con from 0.0696775 to 0.0696775
Heightened Def Con from 0.0697228 to 0.0697228
Heightened Def Con from 0.0697271 to 0.0697271
Heightened Def Con from 0.0697768 to 0.0697768
Heightened Def Con from 0.0699244 to 0.0699244
Heightened Def Con from 0.0699256 to 0.0699256
Heightened Def Con from 0.0700248 to 0.0700248
Heightened Def Con from 0.0700252 to 0.0700252
Heightened Def Con from 0.070124 to 0.070124
Heightened Def Con from 0.070126 to 0.070126
Heightened Def Con from 0.0702232 to 0.0702232
Heightened Def Con from 0.0702268 to 0.0702268
Heightened Def Con from 0.0703225 to 0.0703225
Heightened Def Con from 0.0703225 to 0.0703225
Heightened Def Con from 0.0704217 to 0.0704217
Heightened Def Con from 0.0704217 to 0.0704217
Heightened Def Con from 0.0705209 to 0.0705209
Heightened Def Con from 0.0705291 to 0.0705291
Heightened Def Con from 0.0706202 to 0.0706202
Heightened Def Con from 0.0707194 to 0.0707194
Heightened Def Con from 0.0707307 to 0.0707307
Heightened Def Con from 0.0708186 to 0.0708186
Heightened Def Con from 0.0709179 to 0.0709179
Heightened Def Con from 0.0709322 to 0.0709322
Heightened Def Con from 0.0710171 to 0.0710171
Heightened Def Con from 0.0711164 to 0.0711164
Heightened Def Con from 0.0711337 to 0.0711337
Heightened Def Con from 0.0712157 to 0.0712157
Heightened Def Con from 0.0712345 to 0.0712345
Heightened Def Con from 0.071315 to 0.071315
Heightened Def Con from 0.0713352 to 0.0713352
Heightened Def Con from 0.0714143 to 0.0714143
Heightened Def Con from 0.0715136 to 0.0715136
Heightened Def Con from 0.0715366 to 0.0715366
Heightened Def Con from 0.0716129 to 0.0716129
Heightened Def Con from 0.0716129 to 0.0716129
Heightened Def Con from 0.0716373 to 0.0716373
Heightened Def Con from 0.0717122 to 0.0717122
Heightened Def Con from 0.0718115 to 0.0718115
Heightened Def Con from 0.0719109 to 0.0719109
Heightened Def Con from 0.0720102 to 0.0720102
Heightened Def Con from 0.0720399 to 0.07204
Heightened Def Con from 0.0721096 to 0.0721096
Heightened Def Con from 0.0721406 to 0.0721406
Heightened Def Con from 0.072209 to 0.072209
Heightened Def Con from 0.0723084 to 0.0723084
Heightened Def Con from 0.0723084 to 0.0723084
Heightened Def Con from 0.0723418 to 0.0723418
Heightened Def Con from 0.0724424 to 0.0724424
Heightened Def Con from 0.0725073 to 0.0725073
Heightened Def Con from 0.0726067 to 0.0726067
Heightened Def Con from 0.0727062 to 0.0727062
Heightened Def Con from 0.0728057 to 0.0728057
Heightened Def Con from 0.0729052 to 0.0729052
Heightened Def Con from 0.0729052 to 0.0729052
Heightened Def Con from 0.0730048 to 0.0730048
Heightened Def Con from 0.0730454 to 0.0730454
Heightened Def Con from 0.0731043 to 0.0731043
Heightened Def Con from 0.0733035 to 0.0733035
Heightened Def Con from 0.0734031 to 0.0734031
Heightened Def Con from 0.0735027 to 0.0735027
Heightened Def Con from 0.0736024 to 0.0736024
Heightened Def Con from 0.073702 to 0.0737021
Heightened Def Con from 0.0738018 to 0.0738018
Heightened Def Con from 0.0739015 to 0.0739015
Heightened Def Con from 0.0740012 to 0.0740012
Heightened Def Con from 0.0744496 to 0.0744496
Heightened Def Con from 0.0745003 to 0.0745003
Heightened Def Con from 0.0746498 to 0.0746498
Heightened Def Con from 0.07485 to 0.07485
Heightened Def Con from 0.07495 to 0.07495
Heightened Def Con from 0.07495 to 0.07495
Heightened Def Con from 0.07495 to 0.07495
Heightened Def Con from 0.07505 to 0.07505
Heightened Def Con from 0.07505 to 0.07505
Heightened Def Con from 0.07515 to 0.07515
Heightened Def Con from 0.07515 to 0.07515
Heightened Def Con from 0.0752 to 0.0752
Heightened Def Con from 0.0752499 to 0.0752499
Heightened Def Con from 0.0754002 to 0.0754002
Heightened Def Con from 0.0754498 to 0.0754498
Heightened Def Con from 0.0755003 to 0.0755003
Heightened Def Con from 0.0755496 to 0.0755496
Heightened Def Con from 0.0756004 to 0.0756004
Heightened Def Con from 0.0756495 to 0.0756495
Heightened Def Con from 0.0757493 to 0.0757493
Heightened Def Con from 0.0758008 to 0.0758008
Heightened Def Con from 0.075901 to 0.075901
Heightened Def Con from 0.0761015 to 0.0761015
Heightened Def Con from 0.0762481 to 0.0762481
Heightened Def Con from 0.0763021 to 0.0763021
Heightened Def Con from 0.0764024 to 0.0764024
Heightened Def Con from 0.0766031 to 0.0766031
Heightened Def Con from 0.0767035 to 0.0767035
Heightened Def Con from 0.0767463 to 0.0767463
Heightened Def Con from 0.0768039 to 0.0768039
Heightened Def Con from 0.0769043 to 0.0769043
Heightened Def Con from 0.0769455 to 0.0769455
Heightened Def Con from 0.0770048 to 0.0770048
Heightened Def Con from 0.077045 to 0.077045
Heightened Def Con from 0.0771053 to 0.0771053
Heightened Def Con from 0.0772058 to 0.0772058
Heightened Def Con from 0.0773063 to 0.0773063
Heightened Def Con from 0.0774068 to 0.0774068
Heightened Def Con from 0.0774068 to 0.0774068
Heightened Def Con from 0.077443 to 0.077443
Heightened Def Con from 0.0775074 to 0.0775074
Heightened Def Con from 0.0775424 to 0.0775424
Heightened Def Con from 0.0776079 to 0.0776079
Heightened Def Con from 0.0776419 to 0.0776419
Heightened Def Con from 0.0777085 to 0.0777085
Heightened Def Con from 0.0778091 to 0.0778091
Heightened Def Con from 0.0778091 to 0.0778091
Heightened Def Con from 0.0778407 to 0.0778407
Heightened Def Con from 0.0778594 to 0.0778594
Heightened Def Con from 0.0779097 to 0.0779097
Heightened Def Con from 0.0780104 to 0.0780104
Heightened Def Con from 0.078111 to 0.078111
Heightened Def Con from 0.0782117 to 0.0782117
Heightened Def Con from 0.0782117 to 0.0782117
Heightened Def Con from 0.0783124 to 0.0783124
Heightened Def Con from 0.0783124 to 0.0783124
Heightened Def Con from 0.0783375 to 0.0783375
Heightened Def Con from 0.078413 to 0.078413
Heightened Def Con from 0.0784368 to 0.0784368
Heightened Def Con from 0.0785137 to 0.0785137
Heightened Def Con from 0.0786145 to 0.0786145
Heightened Def Con from 0.0786354 to 0.0786354
Heightened Def Con from 0.0787152 to 0.0787152
Heightened Def Con from 0.0787347 to 0.0787347
Heightened Def Con from 0.0788159 to 0.0788159
Heightened Def Con from 0.0789167 to 0.0789167
Heightened Def Con from 0.0789332 to 0.0789332
Heightened Def Con from 0.0790174 to 0.0790174
Heightened Def Con from 0.0790325 to 0.0790325
Heightened Def Con from 0.0791182 to 0.0791182
Heightened Def Con from 0.0791182 to 0.0791182
Heightened Def Con from 0.0792189 to 0.0792189
Heightened Def Con from 0.0793197 to 0.0793197
Heightened Def Con from 0.0793302 to 0.0793302
Heightened Def Con from 0.0794205 to 0.0794205
Heightened Def Con from 0.0795213 to 0.0795213
Heightened Def Con from 0.079622 to 0.079622
Heightened Def Con from 0.0796279 to 0.0796279
Heightened Def Con from 0.0797228 to 0.0797228
Heightened Def Con from 0.0797271 to 0.0797271
Heightened Def Con from 0.0798236 to 0.0798236
Heightened Def Con from 0.0799244 to 0.0799244
Heightened Def Con from 0.0799256 to 0.0799256
Heightened Def Con from 0.0800252 to 0.0800252
Heightened Def Con from 0.0801764 to 0.0801764
Heightened Def Con from 0.0802232 to 0.0802232
Heightened Def Con from 0.0802232 to 0.0802232
Heightened Def Con from 0.0802772 to 0.0802772
Heightened Def Con from 0.080378 to 0.080378
Heightened Def Con from 0.0804284 to 0.0804284
Heightened Def Con from 0.0804787 to 0.0804787
Heightened Def Con from 0.0805209 to 0.0805209
Heightened Def Con from 0.0806202 to 0.0806202
Heightened Def Con from 0.0806803 to 0.0806803
Heightened Def Con from 0.0807194 to 0.0807194
Heightened Def Con from 0.0807811 to 0.0807811
Heightened Def Con from 0.0809179 to 0.0809179
Heightened Def Con from 0.0809826 to 0.0809826
Heightened Def Con from 0.0810171 to 0.0810171
Heightened Def Con from 0.081033 to 0.081033
Heightened Def Con from 0.0810833 to 0.0810833
Heightened Def Con from 0.0812345 to 0.0812345
Heightened Def Con from 0.0812848 to 0.0812848
Heightened Def Con from 0.0814143 to 0.0814143
Heightened Def Con from 0.0814863 to 0.0814863
Heightened Def Con from 0.0815136 to 0.0815136
Heightened Def Con from 0.081587 to 0.081587
Heightened Def Con from 0.0816129 to 0.0816129
Heightened Def Con from 0.0816876 to 0.0816876
Heightened Def Con from 0.0817883 to 0.0817883
Heightened Def Con from 0.0818115 to 0.0818115
Heightened Def Con from 0.0818387 to 0.0818387
Heightened Def Con from 0.0819109 to 0.0819109
Heightened Def Con from 0.0819109 to 0.0819109
Heightened Def Con from 0.0819393 to 0.0819393
Heightened Def Con from 0.0819896 to 0.0819896
Heightened Def Con from 0.0820102 to 0.0820102
Heightened Def Con from 0.0820399 to 0.0820399
Heightened Def Con from 0.0820903 to 0.0820903
Heightened Def Con from 0.0821406 to 0.0821406
Heightened Def Con from 0.0822412 to 0.0822412
Heightened Def Con from 0.0822915 to 0.0822915
Heightened Def Con from 0.0823418 to 0.0823418
Heightened Def Con from 0.0823921 to 0.0823921
Heightened Def Con from 0.0824078 to 0.0824078
Heightened Def Con from 0.0824424 to 0.0824424
Heightened Def Con from 0.0824926 to 0.0824926
Heightened Def Con from 0.0825073 to 0.0825073
Heightened Def Con from 0.0825429 to 0.0825429
Heightened Def Con from 0.0825932 to 0.0825932
Heightened Def Con from 0.0826937 to 0.0826937
Heightened Def Con from 0.0827062 to 0.0827062
Heightened Def Con from 0.082744 to 0.082744
Heightened Def Con from 0.0827942 to 0.0827942
Heightened Def Con from 0.0828057 to 0.0828057
Heightened Def Con from 0.0828947 to 0.0828947
Heightened Def Con from 0.0829052 to 0.0829052
Heightened Def Con from 0.082945 to 0.082945
Heightened Def Con from 0.0829952 to 0.0829952
Heightened Def Con from 0.0830048 to 0.0830048
Heightened Def Con from 0.0830048 to 0.0830048
Heightened Def Con from 0.0830454 to 0.0830454
Heightened Def Con from 0.0831459 to 0.0831459
Heightened Def Con from 0.0832965 to 0.0832965
Heightened Def Con from 0.0833969 to 0.0833969
Heightened Def Con from 0.0834031 to 0.0834031
Heightened Def Con from 0.0834471 to 0.0834471
Heightened Def Con from 0.0834973 to 0.0834973
Heightened Def Con from 0.0835976 to 0.0835976
Heightened Def Con from 0.0836478 to 0.0836478
Heightened Def Con from 0.0836979 to 0.0836979
Heightened Def Con from 0.0837481 to 0.0837481
Heightened Def Con from 0.0837982 to 0.0837982
Heightened Def Con from 0.0838985 to 0.0838985
Heightened Def Con from 0.0839015 to 0.0839015
Heightened Def Con from 0.0839486 to 0.0839486
Heightened Def Con from 0.0839988 to 0.0839988
Heightened Def Con from 0.0841491 to 0.0841491
Heightened Def Con from 0.0841992 to 0.0841992
Heightened Def Con from 0.0843495 to 0.0843495
Heightened Def Con from 0.0843996 to 0.0843996
Heightened Def Con from 0.0846498 to 0.0846498
Heightened Def Con from 0.0846999 to 0.0846999
Heightened Def Con from 0.0847499 to 0.0847499
Heightened Def Con from 0.0848 to 0.0848
Heightened Def Con from 0.0848 to 0.0848
Heightened Def Con from 0.08485 to 0.08485
Heightened Def Con from 0.0849 to 0.0849
Heightened Def Con from 0.0849 +++++++++++++++++++++++++++++++++++++to 0.0849
Heightened Def Con from 0.08495 to 0.08495
Heightened Def Con from 0.085 +++++++++++++++++++++++++++++++++++++to 0.085
Heightened Def Con from 0.08505 to 0.08505
Heightened Def Con from 0.0851 to 0.0851
[...]
Heightened Def Con from 1.06555 to 1.06555
Heightened Def Con from 1.06565 to 1.06565
Heightened Def Con from 1.0657 to 1.0657
Heightened Def Con from 1.0657 to 1.0657
Heightened Def Con from 1.06585 to 1.06585
Heightened Def Con from 1.06595 to 1.06595
Heightened Def Con from 1.06605 to 1.06605
Heightened Def Con from 1.06615 to 1.06615
Heightened Def Con from 1.0662 to 1.0662
Heightened Def Con from 1.0662 to 1.0662
Heightened Def Con from 1.06635 to 1.06635
Heightened Def Con from 1.0664 to 1.0664
Heightened Def Con from 1.06645 to 1.06645
Heightened Def Con from 1.0666 to 1.0666
Heightened Def Con from 1.0666 to 1.0666
Heightened Def Con from 1.0668 to 1.0668
Heightened Def Con from 1.0668 to 1.0668
Heightened Def Con from 1.06685 to 1.06685
Heightened Def Con from 1.067 to 1.067
Heightened Def Con from 1.06709 to 1.06709
Heightened Def Con from 1.06719 to 1.06719
Heightened Def Con from 1.06721 to 1.06721
Heightened Def Con from 1.06724 to 1.06724
Heightened Def Con from 1.06741 to 1.06741
Heightened Def Con from 1.06751 to 1.06751
Heightened Def Con from 1.06761 to 1.06761
Heightened Def Con from 1.06764 to 1.06764
Heightened Def Con from 1.06769 to 1.06769
Heightened Def Con from 1.06771 to 1.06771
Heightened Def Con from 1.06774 to 1.06774
Heightened Def Con from 1.06779 to 1.06779
Heightened Def Con from 1.06789 to 1.06789
Heightened Def Con from 1.06791 to 1.06791
Heightened Def Con from 1.06794 to 1.06794
Heightened Def Con from 1.06804 to 1.06804
Heightened Def Con from 1.06809 to 1.06809
Heightened Def Con from 1.06814 to 1.06814
Heightened Def Con from 1.06819 to 1.06819
Heightened Def Con from 1.06821 to 1.06821
Heightened Def Con from 1.06824 to 1.06824
Heightened Def Con from 1.06834 to 1.06834
Heightened Def Con from 1.06841 to 1.06841
Heightened Def Con from 1.06859 to 1.06859
Heightened Def Con from 1.06861 to 1.06861
Heightened Def Con from 1.06864 to 1.06864
Heightened Def Con from 1.06872 to 1.06872
Heightened Def Con from 1.06892 to 1.06892
Heightened Def Con from 1.06902 to 1.06902
Heightened Def Con from 1.06903 to 1.06903
Heightened Def Con from 1.06908 to 1.06908
Heightened Def Con from 1.06912 to 1.06912
Heightened Def Con from 1.06918 to 1.06918
Heightened Def Con from 1.06943 to 1.06943
Heightened Def Con from 1.06952 to 1.06952
Heightened Def Con from 1.06972 to 1.06972
Heightened Def Con from 1.06982 to 1.06982
Heightened Def Con from 1.06992 to 1.06992
Heightened Def Con from 1.07002 to 1.07002
Heightened Def Con from 1.07007 to 1.07007
Heightened Def Con from 1.07012 to 1.07012
Heightened Def Con from 1.07022 to 1.07022
Heightened Def Con from 1.07032 to 1.07032
Heightened Def Con from 1.07037 to 1.07037
Heightened Def Con from 1.07042 to 1.07042
Heightened Def Con from 1.07053 to 1.07053
Heightened Def Con from 1.07063 to 1.07063
Heightened Def Con from 1.07067 to 1.07067
Heightened Def Con from 1.07072 to 1.07072
Heightened Def Con from 1.07073 to 1.07073
Heightened Def Con from 1.07077 to 1.07077
Heightened Def Con from 1.07082 to 1.07082
Heightened Def Con from 1.07103 to 1.07103
Heightened Def Con from 1.07107 to 1.07107
Heightened Def Con from 1.07117 to 1.07117
Heightened Def Con from 1.07122 to 1.07122
Heightened Def Con from 1.07123 to 1.07123
Heightened Def Con from 1.07127 to 1.07127
Heightened Def Con from 1.07131 to 1.07131
Heightened Def Con from 1.07136 to 1.07136
Heightened Def Con from 1.07141 to 1.07141
Heightened Def Con from 1.07144 to 1.07144
Heightened Def Con from 1.07146 to 1.07146
Heightened Def Con from 1.07151 to 1.07151
Heightened Def Con from 1.07156 to 1.07156
Heightened Def Con from 1.07161 to 1.07161
Heightened Def Con from 1.07171 to 1.07171
Heightened Def Con from 1.07174 to 1.07174
Heightened Def Con from 1.07176 to 1.07176
Heightened Def Con from 1.07181 to 1.07181
Heightened Def Con from 1.07191 to 1.07191
Heightened Def Con from 1.07194 to 1.07194
Heightened Def Con from 1.07201 to 1.07201
Heightened Def Con from 1.07216 to 1.07216
Heightened Def Con from 1.07226 to 1.07226
Heightened Def Con from 1.07231 to 1.07231
Heightened Def Con from 1.07241 to 1.07241
Heightened Def Con from 1.07244 to 1.07244
Heightened Def Con from 1.07251 to 1.07251
Heightened Def Con from 1.07254 to 1.07254
Heightened Def Con from 1.07256 to 1.07256
Heightened Def Con from 1.07264 to 1.07264
Heightened Def Con from 1.07271 to 1.07271
Heightened Def Con from 1.073 to 1.073
Heightened Def Con from 1.07305 to 1.07305
Heightened Def Con from 1.07305 to 1.07305
Heightened Def Con from 1.07315 to 1.07315
Heightened Def Con from 1.07325 to 1.07325
Heightened Def Con from 1.07335 to 1.07335
Heightened Def Con from 1.07355 to 1.07355
Heightened Def Con from 1.0741 to 1.0741
Heightened Def Con from 1.07415 to 1.07415
Heightened Def Con from 1.0742 to 1.0742
Heightened Def Con from 1.07435 to 1.07435
Heightened Def Con from 1.07445 to 1.07445
Heightened Def Con from 1.0745 to 1.0745
Heightened Def Con from 1.0746 to 1.0746
Heightened Def Con from 1.07465 to 1.07465
Heightened Def Con from 1.07475 to 1.07475
Heightened Def Con from 1.07475 to 1.07475
Heightened Def Con from 1.0748 to 1.0748
Heightened Def Con from 1.07485 to 1.07485
Heightened Def Con from 1.0749 ++++++++++++++++++++++++++++++++++to 1.0749
Heightened Def Con from 1.07495 to 1.07495
Heightened Def Con from 1.075 ++++++++++++++++++++++++++++++++++++to 1.075
Heightened Def Con from 1.07505 to 1.07505
Heightened Def Con from 1.0751 +++++++++++++++++++++++++++++++++++to 1.0751
Heightened Def Con from 1.07515 to 1.07515
Heightened Def Con from 1.07515 to 1.07515
Heightened Def Con from 1.07525 to 1.07525
Heightened Def Con from 1.07535 to 1.07535
Heightened Def Con from 1.0754 to 1.0754
Heightened Def Con from 1.07555 to 1.07555
Heightened Def Con from 1.07565 to 1.07565
Heightened Def Con from 1.07575 to 1.07575
Heightened Def Con from 1.076 to 1.076
Heightened Def Con from 1.07615 to 1.07615
Heightened Def Con from 1.07635 to 1.07635
Heightened Def Con from 1.07655 to 1.07655
Heightened Def Con from 1.07665 to 1.07665
Heightened Def Con from 1.0768 to 1.0768
Heightened Def Con from 1.07695 to 1.07695
Heightened Def Con from 1.07711 to 1.07711
Heightened Def Con from 1.07714 to 1.07714
Heightened Def Con from 1.07716 to 1.07716
Heightened Def Con from 1.07726 to 1.07726
Heightened Def Con from 1.07731 to 1.07731
Heightened Def Con from 1.07741 to 1.07741
Heightened Def Con from 1.07746 to 1.07746
Heightened Def Con from 1.07751 to 1.07751
Heightened Def Con from 1.07756 to 1.07756
Heightened Def Con from 1.07761 to 1.07761
Heightened Def Con from 1.07766 to 1.07766
Heightened Def Con from 1.07771 to 1.07771
Heightened Def Con from 1.07774 to 1.07774
Heightened Def Con from 1.07781 to 1.07781
Heightened Def Con from 1.07784 to 1.07784
Heightened Def Con from 1.07786 to 1.07786
Heightened Def Con from 1.07804 to 1.07804
Heightened Def Con from 1.07811 to 1.07811
Heightened Def Con from 1.07814 to 1.07814
Heightened Def Con from 1.07821 to 1.07821
Heightened Def Con from 1.07831 to 1.07831
Heightened Def Con from 1.07834 to 1.07834
Heightened Def Con from 1.07841 to 1.07841
Heightened Def Con from 1.07846 to 1.07846
Heightened Def Con from 1.07851 to 1.07851
Heightened Def Con from 1.07854 to 1.07854
Heightened Def Con from 1.07866 to 1.07866
Heightened Def Con from 1.07872 to 1.07872
Heightened Def Con from 1.07873 to 1.07873
Heightened Def Con from 1.07887 to 1.07887
Heightened Def Con from 1.07892 to 1.07892
Heightened Def Con from 1.07893 to 1.07893
Heightened Def Con from 1.07897 to 1.07897
Heightened Def Con from 1.07902 to 1.07902
Heightened Def Con from 1.07903 to 1.07903
Heightened Def Con from 1.07907 to 1.07907
Heightened Def Con from 1.07912 to 1.07912
Heightened Def Con from 1.07913 to 1.07913
Heightened Def Con from 1.07917 to 1.07917
Heightened Def Con from 1.07922 to 1.07922
Heightened Def Con from 1.07942 to 1.07942
Heightened Def Con from 1.07947 to 1.07947
Heightened Def Con from 1.07952 to 1.07952
Heightened Def Con from 1.07953 to 1.07953
Heightened Def Con from 1.07962 to 1.07962
Heightened Def Con from 1.07972 to 1.07972
Heightened Def Con from 1.07973 to 1.07973
Heightened Def Con from 1.07982 to 1.07982
Heightened Def Con from 1.07987 to 1.07987
Heightened Def Con from 1.07992 to 1.07992
Heightened Def Con from 1.07997 to 1.07997
Heightened Def Con from 1.08023 to 1.08023
Heightened Def Con from 1.08033 to 1.08033
Heightened Def Con from 1.08042 to 1.08042
Heightened Def Con from 1.08043 to 1.08043
Heightened Def Con from 1.08052 to 1.08052
Heightened Def Con from 1.08062 to 1.08062
Heightened Def Con from 1.08072 to 1.08072
Heightened Def Con from 1.08073 to 1.08073
Heightened Def Con from 1.08082 to 1.08082
Heightened Def Con from 1.08083 to 1.08083
Heightened Def Con from 1.08088 to 1.08088
Heightened Def Con from 1.08092 to 1.08092
Heightened Def Con from 1.08093 to 1.08093
Heightened Def Con from 1.08102 to 1.08102
Heightened Def Con from 1.08103 to 1.08103
Heightened Def Con from 1.08112 to 1.08112
Heightened Def Con from 1.08113 to 1.08113
Heightened Def Con from 1.08123 to 1.08123
Heightened Def Con from 1.08128 to 1.08128
Heightened Def Con from 1.08131 to 1.08131
Heightened Def Con from 1.08151 to 1.08151
Heightened Def Con from 1.08161 to 1.08161
Heightened Def Con from 1.08164 to 1.08164
Heightened Def Con from 1.08171 to 1.08171
Heightened Def Con from 1.08174 to 1.08174
Heightened Def Con from 1.08181 to 1.08181
Heightened Def Con from 1.08184 to 1.08184
Heightened Def Con from 1.08199 to 1.08199
Heightened Def Con from 1.08201 to 1.08201
Heightened Def Con from 1.08204 to 1.08204
Heightened Def Con from 1.08209 to 1.08209
Heightened Def Con from 1.08211 to 1.08211
Heightened Def Con from 1.08221 to 1.08221
Heightened Def Con from 1.08229 to 1.08229
Heightened Def Con from 1.08231 to 1.08231
Heightened Def Con from 1.08234 to 1.08234
Heightened Def Con from 1.08241 to 1.08241
Heightened Def Con from 1.08251 to 1.08251
Heightened Def Con from 1.08264 to 1.08264
Heightened Def Con from 1.08271 to 1.08271
Heightened Def Con from 1.08274 to 1.08274
Heightened Def Con from 1.08279 to 1.08279
Heightened Def Con from 1.08281 to 1.08281
Heightened Def Con from 1.08291 to 1.08291
Heightened Def Con from 1.08294 to 1.08294
Heightened Def Con from 1.083 to 1.083
Heightened Def Con from 1.083 to 1.083
Heightened Def Con from 1.0831 to 1.0831
Heightened Def Con from 1.08315 to 1.08315
Heightened Def Con from 1.0832 to 1.0832
Heightened Def Con from 1.0832 to 1.0832
Heightened Def Con from 1.0833 to 1.0833
Heightened Def Con from 1.0834 to 1.0834
Heightened Def Con from 1.08355 to 1.08355
Heightened Def Con from 1.0836 to 1.0836
Heightened Def Con from 1.0837 to 1.0837
Heightened Def Con from 1.08375 to 1.08375
Heightened Def Con from 1.08395 to 1.08395
Heightened Def Con from 1.084 to 1.084
Heightened Def Con from 1.08405 to 1.08405
Heightened Def Con from 1.0841 to 1.0841
Heightened Def Con from 1.08415 to 1.08415
Heightened Def Con from 1.0842 to 1.0842
Heightened Def Con from 1.08435 to 1.08435
Heightened Def Con from 1.0844 to 1.0844
Heightened Def Con from 1.0845 to 1.0845
Heightened Def Con from 1.08455 to 1.08455
Heightened Def Con from 1.0846 to 1.0846
Heightened Def Con from 1.0847 to 1.0847
Heightened Def Con from 1.08475 to 1.08475
Heightened Def Con from 1.0848 ++++++++++++++++++++++++++++++++++++to 1.0848
Heightened Def Con from 1.08485 to 1.08485
Heightened Def Con from 1.08485 to 1.08485
Heightened Def Con from 1.0849 +++++++++++++++++++++++++++++++++++++to 1.0849
Heightened Def Con from 1.085 +++++++++++++++++++++++++++++++++++++to 1.085
Heightened Def Con from 1.0851 +++++++++++++++++++++++++++++++++++++to 1.0851
Heightened Def Con from 1.08515 to 1.08515
Heightened Def Con from 1.0852 to 1.0852
Heightened Def Con from 1.08525 to 1.08525
Heightened Def Con from 1.08525 to 1.08525
Heightened Def Con from 1.0853 to 1.0853
Heightened Def Con from 1.08545 to 1.08545
Heightened Def Con from 1.0855 to 1.0855
Heightened Def Con from 1.08555 to 1.08555
Heightened Def Con from 1.0858 to 1.0858
Heightened Def Con from 1.08585 to 1.08585
Heightened Def Con from 1.0859 to 1.0859
Heightened Def Con from 1.08595 to 1.08595
Heightened Def Con from 1.08615 to 1.08615
Heightened Def Con from 1.0862 to 1.0862
Heightened Def Con from 1.08625 to 1.08625
Heightened Def Con from 1.0863 to 1.0863
Heightened Def Con from 1.0864 to 1.0864
Heightened Def Con from 1.08645 to 1.08645
Heightened Def Con from 1.08665 to 1.08665
Heightened Def Con from 1.08685 to 1.08685
Heightened Def Con from 1.0869 to 1.0869
Heightened Def Con from 1.08695 to 1.08695
Heightened Def Con from 1.087 to 1.087
Heightened Def Con from 1.08705 to 1.08705
Heightened Def Con from 1.08729 to 1.08729
Heightened Def Con from 1.08731 to 1.08731
Heightened Def Con from 1.08734 to 1.08734
Heightened Def Con from 1.08741 to 1.08741
Heightened Def Con from 1.08751 to 1.08751
Heightened Def Con from 1.08754 to 1.08754
Heightened Def Con from 1.08759 to 1.08759
Heightened Def Con from 1.08761 to 1.08761
Heightened Def Con from 1.08769 to 1.08769
Heightened Def Con from 1.08771 to 1.08771
Heightened Def Con from 1.08774 to 1.08774
Heightened Def Con from 1.08781 to 1.08781
Heightened Def Con from 1.08791 to 1.08791
Heightened Def Con from 1.08804 to 1.08804
Heightened Def Con from 1.08811 to 1.08811
Heightened Def Con from 1.08819 to 1.08819
Heightened Def Con from 1.08821 to 1.08821
Heightened Def Con from 1.08831 to 1.08831
Heightened Def Con from 1.08834 to 1.08834
Heightened Def Con from 1.08841 to 1.08841
Heightened Def Con from 1.08844 to 1.08844
Heightened Def Con from 1.08854 to 1.08854
Heightened Def Con from 1.08859 to 1.08859
Heightened Def Con from 1.08869 to 1.08869
Heightened Def Con from 1.08872 to 1.08872
Heightened Def Con from 1.08873 to 1.08873
Heightened Def Con from 1.08882 to 1.08882
Heightened Def Con from 1.08892 to 1.08892
Heightened Def Con from 1.08893 to 1.08893
Heightened Def Con from 1.08902 to 1.08902
Heightened Def Con from 1.08903 to 1.08903
Heightened Def Con from 1.08922 to 1.08922
Heightened Def Con from 1.08923 to 1.08923
Heightened Def Con from 1.08932 to 1.08932
Heightened Def Con from 1.08942 to 1.08942
Heightened Def Con from 1.08948 to 1.08948
Heightened Def Con from 1.08952 to 1.08952
Heightened Def Con from 1.08962 to 1.08962
Heightened Def Con from 1.08968 to 1.08968
Heightened Def Con from 1.08983 to 1.08983
Heightened Def Con from 1.09003 to 1.09003
Heightened Def Con from 1.09012 to 1.09012
Heightened Def Con from 1.09042 to 1.09042
Heightened Def Con from 1.09052 to 1.09052
Heightened Def Con from 1.09063 to 1.09063
Heightened Def Con from 1.09073 to 1.09073
Heightened Def Con from 1.09082 to 1.09082
Heightened Def Con from 1.09087 to 1.09087
Heightened Def Con from 1.09092 to 1.09092
Heightened Def Con from 1.09097 to 1.09097
Heightened Def Con from 1.09107 to 1.09107
Heightened Def Con from 1.09117 to 1.09117
Heightened Def Con from 1.09122 to 1.09122
Heightened Def Con from 1.09123 to 1.09123
Heightened Def Con from 1.09131 to 1.09131
Heightened Def Con from 1.09151 to 1.09151
Heightened Def Con from 1.09161 to 1.09161
Heightened Def Con from 1.09166 to 1.09166
Heightened Def Con from 1.09171 to 1.09171
Heightened Def Con from 1.09174 to 1.09174
Heightened Def Con from 1.09191 to 1.09191
Heightened Def Con from 1.09194 to 1.09194
Heightened Def Con from 1.09196 to 1.09196
Heightened Def Con from 1.09204 to 1.09204
Heightened Def Con from 1.09206 to 1.09206
Heightened Def Con from 1.09221 to 1.09221
Heightened Def Con from 1.09231 to 1.09231
Heightened Def Con from 1.09241 to 1.09241
Heightened Def Con from 1.09254 to 1.09254
Heightened Def Con from 1.09271 to 1.09271
Heightened Def Con from 1.09276 to 1.09276
Heightened Def Con from 1.09281 to 1.09281
Heightened Def Con from 1.09286 to 1.09286
Heightened Def Con from 1.09294 to 1.09294
Heightened Def Con from 1.0931 to 1.0931
Heightened Def Con from 1.09315 to 1.09315
Heightened Def Con from 1.09325 to 1.09325
Heightened Def Con from 1.09345 to 1.09345
Heightened Def Con from 1.09355 to 1.09355
Heightened Def Con from 1.09385 to 1.09385
Heightened Def Con from 1.094 to 1.094
Heightened Def Con from 1.09405 to 1.09405
Heightened Def Con from 1.09415 to 1.09415
Heightened Def Con from 1.09435 to 1.09435
Heightened Def Con from 1.09445 to 1.09445
Heightened Def Con from 1.0945 to 1.0945
Heightened Def Con from 1.09465 to 1.09465
Heightened Def Con from 1.09475 to 1.09475
Heightened Def Con from 1.09485 to 1.09485
Heightened Def Con from 1.0949 +++++++++++++++++++++++++++++++to 1.0949
Heightened Def Con from 1.0949 ++++++++++++++++++++++++++++++++++++to 1.0949
Heightened Def Con from 1.095 +++++++++++++++++++++++++++++to 1.095
Heightened Def Con from 1.09505 to 1.09505
Heightened Def Con from 1.09515 to 1.09515
Heightened Def Con from 1.0952 to 1.0952
Heightened Def Con from 1.09525 to 1.09525
Heightened Def Con from 1.09525 to 1.09525
Heightened Def Con from 1.0953 to 1.0953
Heightened Def Con from 1.09535 to 1.09535
Heightened Def Con from 1.09555 to 1.09555
Heightened Def Con from 1.09565 to 1.09565
Heightened Def Con from 1.0957 to 1.0957
Heightened Def Con from 1.0958 to 1.0958
Heightened Def Con from 1.09625 to 1.09625
Heightened Def Con from 1.09635 to 1.09635
Heightened Def Con from 1.0964 to 1.0964
Heightened Def Con from 1.0966 to 1.0966
Heightened Def Con from 1.09685 to 1.09685
Heightened Def Con from 1.0969 to 1.0969
Heightened Def Con from 1.09695 to 1.09695
Heightened Def Con from 1.097 to 1.097
Heightened Def Con from 1.09705 to 1.09705
Heightened Def Con from 1.09711 to 1.09711
Heightened Def Con from 1.09726 to 1.09726
Heightened Def Con from 1.09731 to 1.09731
Heightened Def Con from 1.09741 to 1.09741
Heightened Def Con from 1.09746 to 1.09746
Heightened Def Con from 1.09756 to 1.09756
Heightened Def Con from 1.09766 to 1.09766
Heightened Def Con from 1.09771 to 1.09771
Heightened Def Con from 1.09776 to 1.09776
Heightened Def Con from 1.09781 to 1.09781
Heightened Def Con from 1.09801 to 1.09801
Heightened Def Con from 1.09806 to 1.09806
Heightened Def Con from 1.09811 to 1.09811
Heightened Def Con from 1.09821 to 1.09821
Heightened Def Con from 1.09836 to 1.09836
Heightened Def Con from 1.09841 to 1.09841
Heightened Def Con from 1.09844 to 1.09844
Heightened Def Con from 1.09851 to 1.09851
Heightened Def Con from 1.09854 to 1.09854
Heightened Def Con from 1.09861 to 1.09861
Heightened Def Con from 1.09864 to 1.09864
Heightened Def Con from 1.09872 to 1.09872
Heightened Def Con from 1.09873 to 1.09873
Heightened Def Con from 1.09882 to 1.09882
Heightened Def Con from 1.09883 to 1.09883
Heightened Def Con from 1.09887 to 1.09887
Heightened Def Con from 1.09892 to 1.09892
Heightened Def Con from 1.09893 to 1.09893
Heightened Def Con from 1.09897 to 1.09897
Heightened Def Con from 1.09902 to 1.09902
Heightened Def Con from 1.09912 to 1.09912
Heightened Def Con from 1.09922 to 1.09922
Heightened Def Con from 1.09927 to 1.09927
Heightened Def Con from 1.09932 to 1.09932
Heightened Def Con from 1.09937 to 1.09937
Heightened Def Con from 1.09943 to 1.09943
Heightened Def Con from 1.09947 to 1.09947
Heightened Def Con from 1.09952 to 1.09952
Heightened Def Con from 1.09962 to 1.09962
Heightened Def Con from 1.09963 to 1.09963
Heightened Def Con from 1.09967 to 1.09967
Heightened Def Con from 1.09982 to 1.09982
Heightened Def Con from 1.09983 to 1.09983
Heightened Def Con from 1.09987 to 1.09987
Heightened Def Con from 1.09992 to 1.09992
Heightened Def Con from 1.09997 to 1.09997
.step lfiltro=0.0005
.step lfiltro=0.001

Date: Sun Nov 24 20:22:45 2024
Total elapsed time: 174.474 seconds.

tnom = 27
temp = 27
method = modified trap
totiter = 26703333
traniter = 26694714
tranpoints = 6947197
accept = 4997236
rejected = 1990347
matrix size = 41
fillins = 27
solver = Normal
Avg thread counts: 1.0/1.0/1.0/1.0
Matrix Compiler1:     201 opcodes  0.5/[0.2]/0.3
Matrix Compiler2: off  [0.4]/0.5/1.5

